
     RDKit          3D

 39 41  0  0  0  0  0  0  0  0999 V2000
   -3.4455   -0.0709   -0.2333 C   0  0  0  0  0  0  0  0  0  0  0  0
   -2.2857   -0.4965   -1.0825 C   0  0  0  0  0  0  0  0  0  0  0  0
   -1.0039   -0.4762   -0.3267 C   0  0  0  0  0  0  0  0  0  0  0  0
   -1.0476   -0.1221    0.8728 O   0  0  0  0  0  0  0  0  0  0  0  0
    0.2339   -0.8271   -0.8767 N   0  0  0  0  0  0  0  0  0  0  0  0
    1.5128   -0.8488   -0.2785 C   0  0  0  0  0  0  0  0  0  0  0  0
    2.0712    0.4062    0.2501 C   0  0  0  0  0  0  0  0  0  0  0  0
    1.3282    1.1074    1.3223 C   0  0  0  0  0  0  0  0  0  0  0  0
    2.6366    1.3281   -0.8003 C   0  0  0  0  0  0  0  0  0  0  0  0
    5.3577   -3.8275   -0.1028 C   0  0  0  0  0  0  0  0  0  0  0  0
    4.2181   -2.6528   -0.5432 C   0  0  2  0  0  0  0  0  0  0  0  0
    5.4293   -1.5329   -0.7041 C   0  0  0  0  0  0  0  0  0  0  0  0
    4.8224   -0.3092   -1.0980 N   0  0  0  0  0  0  0  0  0  0  0  0
    4.5390    0.1553   -2.3068 N   0  0  0  0  0  0  0  0  0  0  0  0
    3.9989    1.3647   -2.1929 C   0  0  0  0  0  0  0  0  0  0  0  0
    3.9466    1.6544   -0.8959 N   0  0  0  0  0  0  0  0  0  0  0  0
    4.4469    0.6350   -0.2482 N   0  0  0  0  0  0  0  0  0  0  0  0
    3.9305   -2.2928    0.9679 N   0  0  0  0  0  0  0  0  0  0  0  0
    2.7557   -1.5148    1.1762 C   0  0  0  0  0  0  0  0  0  0  0  0
    2.4392   -1.1446    2.4232 N   0  0  0  0  0  0  0  0  0  0  0  0
    1.3391   -0.4308    2.7174 C   0  0  0  0  0  0  0  0  0  0  0  0
    0.4837   -0.0546    1.6854 C   0  0  0  0  0  0  0  0  0  0  0  0
   -0.6668    0.6864    1.9544 C   0  0  0  0  0  0  0  0  0  0  0  0
   -1.4775    1.0313    0.8939 C   0  0  0  0  0  0  0  0  0  0  0  0
   -2.6526    1.7780    1.0976 O   0  0  0  0  0  0  0  0  0  0  0  0
   -3.8636    1.2394    0.7305 C   0  0  0  0  0  0  0  0  0  0  0  0
   -3.9809   -0.0143    0.1649 C   0  0  0  0  0  0  0  0  0  0  0  0
   -5.2105   -0.5258   -0.1922 C   0  0  0  0  0  0  0  0  0  0  0  0
   -6.3675    0.1794   -0.0048 C   0  0  0  0  0  0  0  0  0  0  0  0
   -7.5634   -0.3556   -0.3687 F   0  0  0  0  0  0  0  0  0  0  0  0
   -6.2579    1.4372    0.5617 C   0  0  0  0  0  0  0  0  0  0  0  0
   -5.0180    1.9696    0.9292 C   0  0  0  0  0  0  0  0  0  0  0  0
   -4.9083    3.1935    1.4808 F   0  0  0  0  0  0  0  0  0  0  0  0
   -1.0875    0.6151   -0.3608 C   0  0  0  0  0  0  0  0  0  0  0  0
   -1.8466    0.9428   -1.3199 O   0  0  0  0  0  0  0  0  0  0  0  0
    0.0159   -0.0956   -0.6190 N   0  0  0  0  0  0  0  0  0  0  0  0
    0.3966   -0.5185   -1.9602 C   0  0  0  0  0  0  0  0  0  0  0  0
    0.8369   -0.4508    0.4134 C   0  0  0  0  0  0  0  0  0  0  0  0
    1.9448   -1.1614    0.1750 N   0  0  0  0  0  0  0  0  0  0  0  0
  1  2  1  0
  2  3  1  0
  3  4  2  0
  3  5  1  0
  5  6  1  0
  6  7  1  0
  7  8  1  0
  7  9  1  0
 11 10  1  1
 11 12  1  0
 12 13  1  0
 13 14  1  0
 14 15  2  0
 15 16  1  0
 16 17  2  0
 11 18  1  0
 18 19  1  0
 19 20  2  0
 20 21  1  0
 21 22  2  0
 22 23  1  0
 23 24  2  0
 24 25  1  0
 25 26  1  0
 26 27  2  0
 27 28  1  0
 28 29  2  0
 29 30  1  0
 29 31  1  0
 31 32  2  0
 32 33  1  0
 24 34  1  0
 34 35  2  0
 34 36  1  0
 36 37  1  0
 36 38  1  0
 38 39  2  0
 17 13  1  0
 39 19  1  0
 38 22  1  0
 32 26  1  0
M  END

