
     RDKit          3D

 37 39  0  0  0  0  0  0  0  0999 V2000
    2.8106   -0.5103    0.4141 C   0  0  0  0  0  0  0  0  0  0  0  0
    1.6516   -0.5028   -0.4716 N   0  0  0  0  0  0  0  0  0  0  0  0
    0.3957    0.0297   -0.0695 C   0  0  0  0  0  0  0  0  0  0  0  0
    0.3132    0.5003    1.0887 O   0  0  0  0  0  0  0  0  0  0  0  0
   -0.7121   -0.0107   -1.0397 C   0  0  0  0  0  0  0  0  0  0  0  0
   -1.9850    0.5716   -0.5210 C   0  0  0  0  0  0  0  0  0  0  0  0
   -2.4741   -0.0641    0.5991 O   0  0  0  0  0  0  0  0  0  0  0  0
    3.5620    1.7713    2.6423 C   0  0  0  0  0  0  0  0  0  0  0  0
    4.6903    0.8447    1.8703 C   0  0  2  0  0  0  0  0  0  0  0  0
    4.1012    1.1995    0.3747 C   0  0  0  0  0  0  0  0  0  0  0  0
    4.9812    0.4564   -0.5293 N   0  0  0  0  0  0  0  0  0  0  0  0
    4.7674   -0.7616   -0.9251 N   0  0  0  0  0  0  0  0  0  0  0  0
    5.7611   -1.1315   -1.7395 C   0  0  0  0  0  0  0  0  0  0  0  0
    6.6116   -0.0853   -1.8366 N   0  0  0  0  0  0  0  0  0  0  0  0
    6.0966    0.8692   -1.0789 N   0  0  0  0  0  0  0  0  0  0  0  0
    3.9410   -0.5212    1.9743 N   0  0  0  0  0  0  0  0  0  0  0  0
    2.6859   -0.7091    1.4536 C   0  0  0  0  0  0  0  0  0  0  0  0
    2.1536   -1.9268    1.6093 N   0  0  0  0  0  0  0  0  0  0  0  0
    0.9544   -2.2958    1.1745 C   0  0  0  0  0  0  0  0  0  0  0  0
    0.1730   -1.3822    0.5092 C   0  0  0  0  0  0  0  0  0  0  0  0
   -1.0888   -1.7141    0.0330 C   0  0  0  0  0  0  0  0  0  0  0  0
   -1.8405   -0.7547   -0.6336 C   0  0  0  0  0  0  0  0  0  0  0  0
   -3.0873   -1.0318   -1.1209 O   0  0  0  0  0  0  0  0  0  0  0  0
   -4.2532   -0.3806   -0.7474 C   0  0  0  0  0  0  0  0  0  0  0  0
   -4.9994    0.2865   -1.6978 C   0  0  0  0  0  0  0  0  0  0  0  0
   -6.1636    0.9480   -1.3781 C   0  0  0  0  0  0  0  0  0  0  0  0
   -6.6018    0.9458   -0.0639 C   0  0  0  0  0  0  0  0  0  0  0  0
   -7.7519    1.6043    0.2281 F   0  0  0  0  0  0  0  0  0  0  0  0
   -5.8706    0.2859    0.8973 C   0  0  0  0  0  0  0  0  0  0  0  0
   -4.7058   -0.3725    0.5611 C   0  0  0  0  0  0  0  0  0  0  0  0
   -3.9784   -1.0279    1.5116 F   0  0  0  0  0  0  0  0  0  0  0  0
   -1.2793    0.4984   -0.7876 C   0  0  0  0  0  0  0  0  0  0  0  0
   -1.9376    1.3929   -1.3894 O   0  0  0  0  0  0  0  0  0  0  0  0
   -0.0573    0.7933   -0.3177 N   0  0  0  0  0  0  0  0  0  0  0  0
    0.4926    2.1203   -0.5014 C   0  0  0  0  0  0  0  0  0  0  0  0
    0.7103   -0.1204    0.3412 C   0  0  0  0  0  0  0  0  0  0  0  0
    1.9330    0.1991    0.8033 N   0  0  0  0  0  0  0  0  0  0  0  0
  1  2  1  0
  2  3  1  0
  3  4  2  0
  3  5  1  0
  5  6  1  0
  6  7  1  0
  9  8  1  1
  9 10  1  0
 10 11  1  0
 11 12  1  0
 12 13  2  0
 13 14  1  0
 14 15  2  0
  9 16  1  0
 16 17  1  0
 17 18  2  0
 18 19  1  0
 19 20  2  0
 20 21  1  0
 21 22  2  0
 22 23  1  0
 23 24  1  0
 24 25  2  0
 25 26  1  0
 26 27  2  0
 27 28  1  0
 27 29  1  0
 29 30  2  0
 30 31  1  0
 22 32  1  0
 32 33  2  0
 32 34  1  0
 34 35  1  0
 34 36  1  0
 36 37  2  0
 15 11  1  0
 37 17  1  0
 36 20  1  0
 30 24  1  0
M  END

