
     RDKit          3D

 43 45  0  0  0  0  0  0  0  0999 V2000
   -4.5016    0.9542    0.6321 C   0  0  0  0  0  0  0  0  0  0  0  0
   -3.8770   -0.2951    1.2558 C   0  0  0  0  0  0  0  0  0  0  0  0
   -3.0119   -0.9699    0.0381 C   0  0  2  0  0  0  0  0  0  0  0  0
   -2.4944   -2.2125    0.9957 C   0  0  0  0  0  0  0  0  0  0  0  0
   -1.6963   -0.0531    0.3182 C   0  0  0  0  0  0  0  0  0  0  0  0
   -0.7139   -0.4691   -0.6809 N   0  0  0  0  0  0  0  0  0  0  0  0
    0.5421    0.2064   -0.6401 C   0  0  0  0  0  0  0  0  0  0  0  0
    0.7104    1.1027    0.2416 O   0  0  0  0  0  0  0  0  0  0  0  0
    1.6478   -0.1107   -1.5945 C   0  0  0  0  0  0  0  0  0  0  0  0
    2.8475    0.7319   -1.3292 C   0  0  0  0  0  0  0  0  0  0  0  0
    3.3490    0.5119    0.0544 C   0  0  0  0  0  0  0  0  0  0  0  0
    3.8845   -0.7680    0.2726 O   0  0  0  0  0  1  0  0  0  0  0  0
    3.3139    1.3712    0.9657 O   0  0  0  0  0  0  0  0  0  0  0  0
    6.1419   -0.5972   -1.1481 C   0  0  0  0  0  0  0  0  0  0  0  0
    4.4934   -0.7365   -1.2608 C   0  0  2  0  0  0  0  0  0  0  0  0
    4.2255    0.8791   -1.4472 C   0  0  0  0  0  0  0  0  0  0  0  0
    4.7272    1.5621   -0.3152 N   0  0  0  0  0  0  0  0  0  0  0  0
    5.9841    2.0119   -0.2592 N   0  0  0  0  0  0  0  0  0  0  0  0
    6.2072    2.6211    0.9174 C   0  0  0  0  0  0  0  0  0  0  0  0
    5.0506    2.5340    1.5863 N   0  0  0  0  0  0  0  0  0  0  0  0
    4.1483    1.8932    0.8454 N   0  0  0  0  0  0  0  0  0  0  0  0
    4.2773   -0.7196    0.2993 N   0  0  0  0  0  0  0  0  0  0  0  0
    2.8917   -0.8278    0.5997 C   0  0  0  0  0  0  0  0  0  0  0  0
    2.5091   -0.8302    1.9120 N   0  0  0  0  0  0  0  0  0  0  0  0
    1.2222   -0.9288    2.2801 C   0  0  0  0  0  0  0  0  0  0  0  0
    0.2357   -1.0326    1.2982 C   0  0  0  0  0  0  0  0  0  0  0  0
   -1.0972   -1.1356    1.6340 C   0  0  0  0  0  0  0  0  0  0  0  0
   -2.0383   -1.2364    0.6193 C   0  0  0  0  0  0  0  0  0  0  0  0
   -3.3849   -1.3418    0.9137 O   0  0  0  0  0  0  0  0  0  0  0  0
   -4.2859   -0.3933    0.4724 C   0  0  0  0  0  0  0  0  0  0  0  0
   -3.8099    0.6657   -0.2660 C   0  0  0  0  0  0  0  0  0  0  0  0
   -4.6408    1.6628   -0.7493 C   0  0  0  0  0  0  0  0  0  0  0  0
   -5.9954    1.6065   -0.4898 C   0  0  0  0  0  0  0  0  0  0  0  0
   -6.8794    2.5324   -0.9200 F   0  0  0  0  0  0  0  0  0  0  0  0
   -6.4540    0.5370    0.2521 C   0  0  0  0  0  0  0  0  0  0  0  0
   -5.6288   -0.4545    0.7329 C   0  0  0  0  0  0  0  0  0  0  0  0
   -6.1274   -1.5012    1.4673 F   0  0  0  0  0  0  0  0  0  0  0  0
   -1.6106   -1.2302   -0.6819 C   0  0  0  0  0  0  0  0  0  0  0  0
   -2.4520   -1.3209   -1.5971 O   0  0  0  0  0  0  0  0  0  0  0  0
   -0.3250   -1.1313   -1.0340 N   0  0  0  0  0  0  0  0  0  0  0  0
    0.1050   -1.1262   -2.3985 C   0  0  0  0  0  0  0  0  0  0  0  0
    0.5993   -1.0322   -0.0323 C   0  0  0  0  0  0  0  0  0  0  0  0
    1.9111   -0.9295   -0.3081 N   0  0  0  0  0  0  0  0  0  0  0  0
  1  2  1  0
  2  3  1  0
  3  4  1  1
  3  5  1  0
  5  6  1  0
  6  7  1  0
  7  8  2  0
  7  9  1  0
  9 10  1  0
 10 11  1  0
 11 12  1  0
 11 13  2  0
 15 14  1  1
 15 16  1  0
 16 17  1  0
 17 18  1  0
 18 19  2  0
 19 20  1  0
 20 21  2  0
 15 22  1  0
 22 23  1  0
 23 24  2  0
 24 25  1  0
 25 26  2  0
 26 27  1  0
 27 28  2  0
 28 29  1  0
 29 30  1  0
 30 31  2  0
 31 32  1  0
 32 33  2  0
 33 34  1  0
 33 35  1  0
 35 36  2  0
 36 37  1  0
 28 38  1  0
 38 39  2  0
 38 40  1  0
 40 41  1  0
 40 42  1  0
 42 43  2  0
 21 17  1  0
 43 23  1  0
 42 26  1  0
 36 30  1  0
M  RAD  1  12   2
M  END

