
     RDKit          3D

 43 45  0  0  0  0  0  0  0  0999 V2000
    4.3101    0.3913   -0.8332 C   0  0  0  0  0  0  0  0  0  0  0  0
    3.8339   -0.5393    0.2596 C   0  0  0  0  0  0  0  0  0  0  0  0
    4.7402   -0.4762    1.4681 C   0  0  0  0  0  0  0  0  0  0  0  0
    2.4554   -0.1327    0.6974 C   0  0  0  0  0  0  0  0  0  0  0  0
    1.5184   -0.2049   -0.4461 C   0  0  0  0  0  0  0  0  0  0  0  0
    1.9450   -0.5701   -1.5704 O   0  0  0  0  0  0  0  0  0  0  0  0
    0.1440    0.1298   -0.3022 N   0  0  0  0  0  0  0  0  0  0  0  0
   -0.7046    0.0346   -1.4609 C   0  0  0  0  0  0  0  0  0  0  0  0
   -2.1255    0.4109   -1.1872 C   0  0  0  0  0  0  0  0  0  0  0  0
   -2.7680   -0.4686   -0.1328 C   0  0  0  0  0  0  0  0  0  0  0  0
   -4.1976    0.0011    0.0617 C   0  0  0  0  0  0  0  0  0  0  0  0
   -4.9219   -0.8108    1.0911 C   0  0  0  0  0  0  0  0  0  0  0  0
   -4.2293   -0.6975    2.3549 N   0  0  0  0  0  4  0  0  0  0  0  0
    3.9911   -1.3738   -0.9141 C   0  0  0  0  0  0  0  0  0  0  0  0
    4.4397   -0.0149   -1.7505 C   0  0  2  0  0  0  0  0  0  0  0  0
    5.9759   -0.0060   -1.1526 C   0  0  0  0  0  0  0  0  0  0  0  0
    5.9110    0.0997    0.2585 N   0  0  0  0  0  0  0  0  0  0  0  0
    5.8922    1.1244    1.0756 N   0  0  0  0  0  0  0  0  0  0  0  0
    5.8239    0.7182    2.3491 C   0  0  0  0  0  0  0  0  0  0  0  0
    5.7990   -0.6195    2.3226 N   0  0  0  0  0  0  0  0  0  0  0  0
    5.8524   -0.9692    1.0534 N   0  0  0  0  0  0  0  0  0  0  0  0
    3.8687    0.9756   -0.6709 N   0  0  0  0  0  0  0  0  0  0  0  0
    2.4757    0.7974   -0.4808 C   0  0  0  0  0  0  0  0  0  0  0  0
    1.7805    1.5573    0.4135 N   0  0  0  0  0  0  0  0  0  0  0  0
    0.4556    1.3825    0.5892 C   0  0  0  0  0  0  0  0  0  0  0  0
   -0.2547    0.4397   -0.1162 C   0  0  0  0  0  0  0  0  0  0  0  0
   -1.6094    0.2233    0.0281 C   0  0  0  0  0  0  0  0  0  0  0  0
   -2.2742   -0.7378   -0.7063 C   0  0  0  0  0  0  0  0  0  0  0  0
   -3.6266   -0.9978   -0.6038 O   0  0  0  0  0  0  0  0  0  0  0  0
   -4.4889   -0.3341    0.2429 C   0  0  0  0  0  0  0  0  0  0  0  0
   -5.1772   -1.0407    1.2024 C   0  0  0  0  0  0  0  0  0  0  0  0
   -6.0474   -0.4463    2.0741 C   0  0  0  0  0  0  0  0  0  0  0  0
   -6.2516    0.8957    2.0024 C   0  0  0  0  0  0  0  0  0  0  0  0
   -7.1192    1.5253    2.8630 F   0  0  0  0  0  0  0  0  0  0  0  0
   -5.5963    1.6440    1.0715 C   0  0  0  0  0  0  0  0  0  0  0  0
   -4.7227    1.0397    0.1982 C   0  0  0  0  0  0  0  0  0  0  0  0
   -4.0464    1.7408   -0.7464 F   0  0  0  0  0  0  0  0  0  0  0  0
   -1.5346   -1.4810   -1.5963 C   0  0  0  0  0  0  0  0  0  0  0  0
   -2.0551   -2.3886   -2.3174 O   0  0  0  0  0  0  0  0  0  0  0  0
   -0.2129   -1.2666   -1.7340 N   0  0  0  0  0  0  0  0  0  0  0  0
    0.5485   -2.0521   -2.6694 C   0  0  0  0  0  0  0  0  0  0  0  0
    0.4473   -0.3259   -1.0176 C   0  0  0  0  0  0  0  0  0  0  0  0
    1.7557   -0.1093   -1.1498 N   0  0  0  0  0  0  0  0  0  0  0  0
  1  2  1  0
  2  3  1  0
  2  4  1  0
  4  5  1  0
  5  6  2  0
  5  7  1  0
  7  8  1  0
  8  9  1  0
  9 10  1  0
 10 11  1  0
 11 12  1  0
 12 13  1  0
 15 14  1  1
 15 16  1  0
 16 17  1  0
 17 18  1  0
 18 19  2  0
 19 20  1  0
 20 21  2  0
 15 22  1  0
 22 23  1  0
 23 24  2  0
 24 25  1  0
 25 26  2  0
 26 27  1  0
 27 28  2  0
 28 29  1  0
 29 30  1  0
 30 31  2  0
 31 32  1  0
 32 33  2  0
 33 34  1  0
 33 35  1  0
 35 36  2  0
 36 37  1  0
 28 38  1  0
 38 39  2  0
 38 40  1  0
 40 41  1  0
 40 42  1  0
 42 43  2  0
 21 17  1  0
 43 23  1  0
 42 26  1  0
 36 30  1  0
M  CHG  1  13   1
M  END

