
     RDKit          3D

 44 46  0  0  0  0  0  0  0  0999 V2000
    5.0278   -0.6940    1.2945 C   0  0  0  0  0  0  0  0  0  0  0  0
    5.1527   -1.6735   -0.0375 C   0  0  2  0  0  0  0  0  0  0  0  0
    4.6293   -0.5052   -1.0827 C   0  0  0  0  0  0  0  0  0  0  0  0
    5.6059    0.5556   -0.9237 N   0  0  0  0  0  0  0  0  0  0  0  0
    5.6112    1.5828   -0.0917 N   0  0  0  0  0  0  0  0  0  0  0  0
    6.7190    2.3171   -0.2929 C   0  0  0  0  0  0  0  0  0  0  0  0
    7.4048    1.7124   -1.2793 N   0  0  0  0  0  0  0  0  0  0  0  0
    6.7068    0.6551   -1.6364 N   0  0  0  0  0  0  0  0  0  0  0  0
    3.7438   -2.3372    0.1700 N   0  0  0  0  0  0  0  0  0  0  0  0
    2.6114   -1.5067    0.2085 C   0  0  0  0  0  0  0  0  0  0  0  0
    2.6280   -0.1809    0.0822 N   0  0  0  0  0  0  0  0  0  0  0  0
    1.4972    0.5439    0.1306 C   0  0  0  0  0  0  0  0  0  0  0  0
    0.2414   -0.0514    0.3158 C   0  0  0  0  0  0  0  0  0  0  0  0
   -0.9019    0.6752    0.3648 C   0  0  0  0  0  0  0  0  0  0  0  0
   -2.1629    0.0083    0.5571 C   0  0  0  0  0  0  0  0  0  0  0  0
   -3.2260    0.7877    0.5950 O   0  0  0  0  0  0  0  0  0  0  0  0
   -4.3518    1.0484   -0.0550 C   0  0  0  0  0  0  0  0  0  0  0  0
   -4.4048    2.3672   -0.6262 C   0  0  0  0  0  0  0  0  0  0  0  0
   -5.4859    2.7822   -1.3162 C   0  0  0  0  0  0  0  0  0  0  0  0
   -6.5929    1.9803   -1.5150 C   0  0  0  0  0  0  0  0  0  0  0  0
   -7.6545    2.4411   -2.2153 F   0  0  0  0  0  0  0  0  0  0  0  0
   -6.5348    0.7241   -0.9666 C   0  0  0  0  0  0  0  0  0  0  0  0
   -5.4372    0.2501   -0.2436 C   0  0  0  0  0  0  0  0  0  0  0  0
   -5.5541   -0.9884    0.2484 F   0  0  0  0  0  0  0  0  0  0  0  0
   -2.0772   -1.3522    0.6773 C   0  0  0  0  0  0  0  0  0  0  0  0
   -3.0965   -2.0650    0.8534 O   0  0  0  0  0  0  0  0  0  0  0  0
   -0.9108   -2.0502    0.6227 N   0  0  0  0  0  0  0  0  0  0  0  0
   -0.8787   -3.5009    0.7561 C   0  0  0  0  0  0  0  0  0  0  0  0
    0.2580   -1.4237    0.4431 C   0  0  0  0  0  0  0  0  0  0  0  0
    1.4326   -2.1021    0.3859 N   0  0  0  0  0  0  0  0  0  0  0  0
    5.0204   -0.6701   -0.6447 N   0  0  0  0  0  0  0  0  0  0  0  0
    3.6462   -1.0187   -0.8252 C   0  0  0  0  0  0  0  0  0  0  0  0
    2.9985   -0.3423   -1.6516 O   0  0  0  0  0  0  0  0  0  0  0  0
    2.9942   -2.1204   -0.0860 C   0  0  0  0  0  0  0  0  0  0  0  0
    1.5547   -2.1969   -0.4692 C   0  0  0  0  0  0  0  0  0  0  0  0
    0.8719   -0.9272   -0.1325 C   0  0  0  0  0  0  0  0  0  0  0  0
    1.4378    0.0611    0.4154 O   0  0  0  0  0  0  0  0  0  0  0  0
   -0.5284   -0.7290   -0.4168 N   0  0  0  0  0  0  0  0  0  0  0  0
   -1.2025    0.5141   -0.0885 C   0  0  0  0  0  0  0  0  0  0  0  0
   -2.6476    0.3111   -0.5470 C   0  0  0  0  0  0  0  0  0  0  0  0
   -3.5059    1.4956   -0.2904 C   0  0  0  0  0  0  0  0  0  0  0  0
   -3.5579    1.8196    1.1528 C   0  0  0  0  0  0  0  0  0  0  0  0
   -2.8404    1.0229    2.0323 O   0  0  0  0  0  1  0  0  0  0  0  0
   -4.2411    2.7966    1.5514 O   0  0  0  0  0  0  0  0  0  0  0  0
  2  1  1  1
  2  3  1  0
  3  4  1  0
  4  5  1  0
  5  6  2  0
  6  7  1  0
  7  8  2  0
  2  9  1  0
  9 10  1  0
 10 11  2  0
 11 12  1  0
 12 13  2  0
 13 14  1  0
 14 15  2  0
 15 16  1  0
 16 17  1  0
 17 18  2  0
 18 19  1  0
 19 20  2  0
 20 21  1  0
 20 22  1  0
 22 23  2  0
 23 24  1  0
 15 25  1  0
 25 26  2  0
 25 27  1  0
 27 28  1  0
 27 29  1  0
 29 30  2  0
 31 32  1  0
 32 33  2  0
 32 34  1  0
 34 35  1  0
 35 36  1  0
 36 37  2  0
 36 38  1  0
 38 39  1  0
 39 40  1  0
 40 41  1  0
 41 42  1  0
 42 43  1  0
 42 44  2  0
  8  4  1  0
 30 10  1  0
 29 13  1  0
 23 17  1  0
M  RAD  1  43   2
M  END

