
     RDKit          3D

 43 45  0  0  0  0  0  0  0  0999 V2000
   -5.0594    0.1170    0.9079 C   0  0  0  0  0  0  0  0  0  0  0  0
   -3.6343    0.3358    0.5164 C   0  0  0  0  0  0  0  0  0  0  0  0
   -3.4505    1.5579   -0.3607 C   0  0  0  0  0  0  0  0  0  0  0  0
   -3.0177   -0.8447   -0.1946 C   0  0  0  0  0  0  0  0  0  0  0  0
   -1.6052   -0.5061   -0.5309 C   0  0  0  0  0  0  0  0  0  0  0  0
   -0.8140   -0.2091    0.6723 N   0  0  0  0  0  0  0  0  0  0  0  0
    0.5455    0.1328    0.5545 C   0  0  0  0  0  0  0  0  0  0  0  0
    1.0551    0.1759   -0.5928 O   0  0  0  0  0  0  0  0  0  0  0  0
    1.3996    0.4439    1.7308 C   0  0  0  0  0  0  0  0  0  0  0  0
    2.7918    0.7714    1.3121 C   0  0  0  0  0  0  0  0  0  0  0  0
    3.4498   -0.3822    0.5671 C   0  0  0  0  0  0  0  0  0  0  0  0
    3.5320   -1.6285    1.4080 C   0  0  0  0  0  0  0  0  0  0  0  0
    4.8074    0.0358    0.0474 C   0  0  0  0  0  0  0  0  0  0  0  0
    5.0637   -0.8137   -1.8128 C   0  0  0  0  0  0  0  0  0  0  0  0
    5.5007    0.1388   -0.5322 C   0  0  2  0  0  0  0  0  0  0  0  0
    4.6805   -0.7781    0.5689 C   0  0  0  0  0  0  0  0  0  0  0  0
    4.8975   -0.1483    1.8362 N   0  0  0  0  0  0  0  0  0  0  0  0
    4.1338    0.7929    2.3606 N   0  0  0  0  0  0  0  0  0  0  0  0
    4.6959    1.0938    3.5432 C   0  0  0  0  0  0  0  0  0  0  0  0
    5.7952    0.3308    3.7223 N   0  0  0  0  0  0  0  0  0  0  0  0
    5.8849   -0.4186    2.6523 N   0  0  0  0  0  0  0  0  0  0  0  0
    4.3631    1.1864   -0.7820 N   0  0  0  0  0  0  0  0  0  0  0  0
    3.0294    0.7710   -0.8246 C   0  0  0  0  0  0  0  0  0  0  0  0
    2.7921   -0.5428   -0.6490 N   0  0  0  0  0  0  0  0  0  0  0  0
    1.5992   -1.1111   -0.6580 C   0  0  0  0  0  0  0  0  0  0  0  0
    0.4924   -0.3154   -0.8617 C   0  0  0  0  0  0  0  0  0  0  0  0
   -0.7303   -0.8480   -0.8774 C   0  0  0  0  0  0  0  0  0  0  0  0
   -1.8828   -0.0120   -1.0898 C   0  0  0  0  0  0  0  0  0  0  0  0
   -3.0451   -0.6528   -1.0855 O   0  0  0  0  0  0  0  0  0  0  0  0
   -4.2126   -0.7863   -0.4678 C   0  0  0  0  0  0  0  0  0  0  0  0
   -4.4662   -2.0579    0.1591 C   0  0  0  0  0  0  0  0  0  0  0  0
   -5.6130   -2.2900    0.8038 C   0  0  0  0  0  0  0  0  0  0  0  0
   -6.6079   -1.3268    0.9007 C   0  0  0  0  0  0  0  0  0  0  0  0
   -7.7763   -1.5380    1.5486 F   0  0  0  0  0  0  0  0  0  0  0  0
   -6.3952   -0.1061    0.3129 C   0  0  0  0  0  0  0  0  0  0  0  0
   -5.1891    0.1444   -0.3683 C   0  0  0  0  0  0  0  0  0  0  0  0
   -5.1137    1.3716   -0.9315 F   0  0  0  0  0  0  0  0  0  0  0  0
   -1.5873    1.3004   -1.2619 C   0  0  0  0  0  0  0  0  0  0  0  0
   -2.5399    2.1324   -1.4625 O   0  0  0  0  0  0  0  0  0  0  0  0
   -0.3331    1.8141   -1.2406 N   0  0  0  0  0  0  0  0  0  0  0  0
   -0.1567    3.2416   -1.4382 C   0  0  0  0  0  0  0  0  0  0  0  0
    0.7391    1.0418   -1.0429 C   0  0  0  0  0  0  0  0  0  0  0  0
    1.9819    1.5536   -1.0217 N   0  0  0  0  0  0  0  0  0  0  0  0
  1  2  1  0
  2  3  1  0
  2  4  1  0
  4  5  1  0
  5  6  1  0
  6  7  1  0
  7  8  2  0
  7  9  1  0
  9 10  1  0
 10 11  1  0
 11 12  1  0
 11 13  1  0
 15 14  1  6
 15 16  1  0
 16 17  1  0
 17 18  1  0
 18 19  2  0
 19 20  1  0
 20 21  2  0
 15 22  1  0
 22 23  1  0
 23 24  2  0
 24 25  1  0
 25 26  2  0
 26 27  1  0
 27 28  2  0
 28 29  1  0
 29 30  1  0
 30 31  2  0
 31 32  1  0
 32 33  2  0
 33 34  1  0
 33 35  1  0
 35 36  2  0
 36 37  1  0
 28 38  1  0
 38 39  2  0
 38 40  1  0
 40 41  1  0
 40 42  1  0
 42 43  2  0
 21 17  1  0
 43 23  1  0
 42 26  1  0
 36 30  1  0
M  END

