
     RDKit          3D

 45 48  0  0  0  0  0  0  0  0999 V2000
    2.9910    0.9567   -1.2380 C   0  0  0  0  0  0  0  0  0  0  0  0
    3.1466   -0.4922   -0.9999 C   0  0  0  0  0  0  0  0  0  0  0  0
    3.5925   -0.7087    0.5043 C   0  0  2  0  0  0  0  0  0  0  0  0
    3.7235   -2.3590    0.3436 C   0  0  0  0  0  0  0  0  0  0  0  0
    2.1787   -0.8312    1.1864 C   0  0  0  0  0  0  0  0  0  0  0  0
    1.3942    0.3716    1.0991 C   0  0  0  0  0  0  0  0  0  0  0  0
    1.9164    1.4833    0.9003 O   0  0  0  0  0  0  0  0  0  0  0  0
   -0.0381    0.3643    1.2354 N   0  0  0  0  0  0  0  0  0  0  0  0
   -0.7643    1.6113    1.1362 C   0  0  0  0  0  0  0  0  0  0  0  0
   -2.2305    1.3666    1.3075 C   0  0  0  0  0  0  0  0  0  0  0  0
   -2.7765    0.4522    0.2877 C   0  0  0  0  0  0  0  0  0  0  0  0
   -3.3164    0.6732   -0.9433 C   0  0  0  0  0  0  0  0  0  0  0  0
   -3.6634   -0.5170   -1.4710 N   0  0  0  0  0  0  0  0  0  0  0  0
   -3.3455   -1.4872   -0.5804 C   0  0  0  0  0  0  0  0  0  0  0  0
   -2.8081   -0.8839    0.4821 N   0  0  0  0  0  0  0  0  0  0  0  0
    4.3864   -0.3451   -2.4699 C   0  0  0  0  0  0  0  0  0  0  0  0
    5.0238   -0.1734   -0.9662 C   0  0  2  0  0  0  0  0  0  0  0  0
    3.8778   -1.0886   -0.2338 C   0  0  0  0  0  0  0  0  0  0  0  0
    4.2560   -1.0773    1.1713 N   0  0  0  0  0  0  0  0  0  0  0  0
    3.8278   -0.1764    2.0204 N   0  0  0  0  0  0  0  0  0  0  0  0
    4.3254   -0.3957    3.2438 C   0  0  0  0  0  0  0  0  0  0  0  0
    5.0947   -1.4917    3.1142 N   0  0  0  0  0  0  0  0  0  0  0  0
    5.0327   -1.8805    1.8506 N   0  0  0  0  0  0  0  0  0  0  0  0
    4.3262    1.1945   -0.6969 N   0  0  0  0  0  0  0  0  0  0  0  0
    2.9383    1.2948   -0.7514 C   0  0  0  0  0  0  0  0  0  0  0  0
    2.3899    2.4724   -0.5167 N   0  0  0  0  0  0  0  0  0  0  0  0
    1.0883    2.7328   -0.5304 C   0  0  0  0  0  0  0  0  0  0  0  0
    0.1974    1.6994   -0.8125 C   0  0  0  0  0  0  0  0  0  0  0  0
   -1.1651    1.9139   -0.8399 C   0  0  0  0  0  0  0  0  0  0  0  0
   -1.9834    0.8582   -1.1230 C   0  0  0  0  0  0  0  0  0  0  0  0
   -3.3531    1.0224   -1.1621 O   0  0  0  0  0  0  0  0  0  0  0  0
   -4.1849    0.3076   -0.3143 C   0  0  0  0  0  0  0  0  0  0  0  0
   -5.1375   -0.5271   -0.8820 C   0  0  0  0  0  0  0  0  0  0  0  0
   -5.9696   -1.2424   -0.0578 C   0  0  0  0  0  0  0  0  0  0  0  0
   -5.8741   -1.1450    1.3157 C   0  0  0  0  0  0  0  0  0  0  0  0
   -6.7020   -1.8568    2.1192 F   0  0  0  0  0  0  0  0  0  0  0  0
   -4.9153   -0.3049    1.8786 C   0  0  0  0  0  0  0  0  0  0  0  0
   -4.0778    0.4150    1.0399 C   0  0  0  0  0  0  0  0  0  0  0  0
   -3.1515    1.2269    1.6171 F   0  0  0  0  0  0  0  0  0  0  0  0
   -1.3958   -0.3701   -1.3669 C   0  0  0  0  0  0  0  0  0  0  0  0
   -2.1741   -1.3218   -1.6244 O   0  0  0  0  0  0  0  0  0  0  0  0
   -0.0673   -0.5551   -1.3348 N   0  0  0  0  0  0  0  0  0  0  0  0
    0.5223   -1.8693   -1.5979 C   0  0  0  0  0  0  0  0  0  0  0  0
    0.7568    0.4634   -1.0597 C   0  0  0  0  0  0  0  0  0  0  0  0
    2.1078    0.2624   -1.0300 N   0  0  0  0  0  0  0  0  0  0  0  0
  1  2  1  0
  2  3  1  0
  3  4  1  6
  3  5  1  0
  5  6  1  0
  6  7  2  0
  6  8  1  0
  8  9  1  0
  9 10  1  0
 10 11  1  0
 11 12  2  0
 12 13  1  0
 13 14  1  0
 14 15  2  0
 17 16  1  6
 17 18  1  0
 18 19  1  0
 19 20  1  0
 20 21  2  0
 21 22  1  0
 22 23  2  0
 17 24  1  0
 24 25  1  0
 25 26  2  0
 26 27  1  0
 27 28  2  0
 28 29  1  0
 29 30  2  0
 30 31  1  0
 31 32  1  0
 32 33  2  0
 33 34  1  0
 34 35  2  0
 35 36  1  0
 35 37  1  0
 37 38  2  0
 38 39  1  0
 30 40  1  0
 40 41  2  0
 40 42  1  0
 42 43  1  0
 42 44  1  0
 44 45  2  0
 15 11  1  0
 23 19  1  0
 45 25  1  0
 44 28  1  0
 38 32  1  0
M  END

