
     RDKit          3D

 43 45  0  0  0  0  0  0  0  0999 V2000
   -3.3908   -0.9228   -0.6203 C   0  0  0  0  0  0  0  0  0  0  0  0
   -3.8042   -0.4528    0.7423 C   0  0  0  0  0  0  0  0  0  0  0  0
   -5.2590   -0.0391    0.6573 C   0  0  0  0  0  0  0  0  0  0  0  0
   -3.0049    0.6754    1.2142 C   0  0  0  0  0  0  0  0  0  0  0  0
   -1.6276    0.5849    1.3850 N   0  0  0  0  0  0  0  0  0  0  0  0
   -0.6157    0.3221    0.4446 C   0  0  0  0  0  0  0  0  0  0  0  0
   -0.9504    0.1397   -0.7378 O   0  0  0  0  0  0  0  0  0  0  0  0
    0.8411    0.2629    0.8607 C   0  0  0  0  0  0  0  0  0  0  0  0
    1.7194   -0.0301   -0.3150 C   0  0  0  0  0  0  0  0  0  0  0  0
    3.1477   -0.0731    0.1765 C   0  0  0  0  0  0  0  0  0  0  0  0
    4.0805   -0.3600   -0.9378 C   0  0  0  0  0  0  0  0  0  0  0  0
    3.5596   -0.5394   -2.1989 O   0  0  0  0  0  1  0  0  0  0  0  0
    5.3041   -0.4245   -0.6706 O   0  0  0  0  0  0  0  0  0  0  0  0
    2.9283   -0.3205    2.3263 C   0  0  0  0  0  0  0  0  0  0  0  0
    4.0954    0.4031    1.3636 C   0  0  1  0  0  0  0  0  0  0  0  0
    5.3018   -0.5182    2.0448 C   0  0  0  0  0  0  0  0  0  0  0  0
    6.4990   -0.0816    1.3643 N   0  0  0  0  0  0  0  0  0  0  0  0
    7.0703   -0.5143    0.2715 N   0  0  0  0  0  0  0  0  0  0  0  0
    8.1729    0.2023    0.0216 C   0  0  0  0  0  0  0  0  0  0  0  0
    8.2763    1.1068    1.0013 N   0  0  0  0  0  0  0  0  0  0  0  0
    7.2487    0.9149    1.8047 N   0  0  0  0  0  0  0  0  0  0  0  0
    3.8527   -0.6147    0.1805 N   0  0  0  0  0  0  0  0  0  0  0  0
    2.5432   -0.6249   -0.3513 C   0  0  0  0  0  0  0  0  0  0  0  0
    2.1716   -1.4355   -1.3646 N   0  0  0  0  0  0  0  0  0  0  0  0
    0.9225   -1.4290   -1.8545 C   0  0  0  0  0  0  0  0  0  0  0  0
   -0.0422   -0.5857   -1.3382 C   0  0  0  0  0  0  0  0  0  0  0  0
   -1.3329   -0.5427   -1.8058 C   0  0  0  0  0  0  0  0  0  0  0  0
   -2.2517    0.3230   -1.2472 C   0  0  0  0  0  0  0  0  0  0  0  0
   -3.5625    0.3837   -1.7040 O   0  0  0  0  0  0  0  0  0  0  0  0
   -4.6586    0.1189   -0.8934 C   0  0  0  0  0  0  0  0  0  0  0  0
   -4.5489   -0.2258    0.4290 C   0  0  0  0  0  0  0  0  0  0  0  0
   -5.6874   -0.4695    1.1528 C   0  0  0  0  0  0  0  0  0  0  0  0
   -6.9595   -0.3878    0.6230 C   0  0  0  0  0  0  0  0  0  0  0  0
   -8.0582   -0.6375    1.3763 F   0  0  0  0  0  0  0  0  0  0  0  0
   -7.0212   -0.0376   -0.7118 C   0  0  0  0  0  0  0  0  0  0  0  0
   -5.9016    0.2144   -1.4701 C   0  0  0  0  0  0  0  0  0  0  0  0
   -5.9998    0.5614   -2.7991 F   0  0  0  0  0  0  0  0  0  0  0  0
   -1.8154    1.1314   -0.2106 C   0  0  0  0  0  0  0  0  0  0  0  0
   -2.5910    1.9487    0.3532 O   0  0  0  0  0  0  0  0  0  0  0  0
   -0.5488    1.0843    0.2431 N   0  0  0  0  0  0  0  0  0  0  0  0
   -0.1039    1.9407    1.3342 C   0  0  0  0  0  0  0  0  0  0  0  0
    0.3702    0.2372   -0.2956 C   0  0  0  0  0  0  0  0  0  0  0  0
    1.6306    0.1905    0.1560 N   0  0  0  0  0  0  0  0  0  0  0  0
  1  2  1  0
  2  3  1  0
  2  4  1  0
  4  5  1  0
  5  6  1  0
  6  7  2  0
  6  8  1  0
  8  9  1  0
  9 10  1  0
 10 11  1  0
 11 12  1  0
 11 13  2  0
 15 14  1  6
 15 16  1  0
 16 17  1  0
 17 18  1  0
 18 19  2  0
 19 20  1  0
 20 21  2  0
 15 22  1  0
 22 23  1  0
 23 24  2  0
 24 25  1  0
 25 26  2  0
 26 27  1  0
 27 28  2  0
 28 29  1  0
 29 30  1  0
 30 31  2  0
 31 32  1  0
 32 33  2  0
 33 34  1  0
 33 35  1  0
 35 36  2  0
 36 37  1  0
 28 38  1  0
 38 39  2  0
 38 40  1  0
 40 41  1  0
 40 42  1  0
 42 43  2  0
 21 17  1  0
 43 23  1  0
 42 26  1  0
 36 30  1  0
M  RAD  1  12   2
M  END

