
     RDKit          3D

 47 50  0  0  0  0  0  0  0  0999 V2000
   -4.7445    1.4810   -1.8112 C   0  0  0  0  0  0  0  0  0  0  0  0
   -5.2003    0.0294   -2.3586 C   0  0  2  0  0  0  0  0  0  0  0  0
   -5.9281   -0.5182   -1.0756 C   0  0  0  0  0  0  0  0  0  0  0  0
   -5.2677   -0.6433    0.1069 N   0  0  0  0  0  0  0  0  0  0  0  0
   -4.5447   -1.6563    0.5713 N   0  0  0  0  0  0  0  0  0  0  0  0
   -4.1004   -1.4023    1.8069 C   0  0  0  0  0  0  0  0  0  0  0  0
   -4.5620   -0.1904    2.1226 N   0  0  0  0  0  0  0  0  0  0  0  0
   -5.2535    0.2561    1.1123 N   0  0  0  0  0  0  0  0  0  0  0  0
   -3.8405   -0.6453   -2.3823 N   0  0  0  0  0  0  0  0  0  0  0  0
   -2.7761   -0.2791   -1.5684 C   0  0  0  0  0  0  0  0  0  0  0  0
   -2.8540    0.7306   -0.7022 N   0  0  0  0  0  0  0  0  0  0  0  0
   -1.7984    1.0369    0.0544 C   0  0  0  0  0  0  0  0  0  0  0  0
   -0.6173    0.3072   -0.0569 C   0  0  0  0  0  0  0  0  0  0  0  0
    0.4887    0.5526    0.6679 C   0  0  0  0  0  0  0  0  0  0  0  0
    1.6990   -0.2100    0.5402 C   0  0  0  0  0  0  0  0  0  0  0  0
    2.6884    0.1945    1.3561 O   0  0  0  0  0  0  0  0  0  0  0  0
    3.8970    0.7013    1.3795 C   0  0  0  0  0  0  0  0  0  0  0  0
    4.0087    2.0098    1.9426 C   0  0  0  0  0  0  0  0  0  0  0  0
    5.1745    2.6736    2.0456 C   0  0  0  0  0  0  0  0  0  0  0  0
    6.3224    2.0622    1.5847 C   0  0  0  0  0  0  0  0  0  0  0  0
    7.5216    2.6746    1.6586 F   0  0  0  0  0  0  0  0  0  0  0  0
    6.2665    0.8057    1.0361 C   0  0  0  0  0  0  0  0  0  0  0  0
    5.0468    0.1143    0.9305 C   0  0  0  0  0  0  0  0  0  0  0  0
    5.1058   -1.1313    0.4042 F   0  0  0  0  0  0  0  0  0  0  0  0
    1.6530   -1.2122   -0.3744 C   0  0  0  0  0  0  0  0  0  0  0  0
    2.6693   -1.9344   -0.5496 O   0  0  0  0  0  0  0  0  0  0  0  0
    0.5432   -1.4692   -1.1120 N   0  0  0  0  0  0  0  0  0  0  0  0
    0.6079   -2.5766   -2.0710 C   0  0  0  0  0  0  0  0  0  0  0  0
   -0.5691   -0.7383   -0.9686 C   0  0  0  0  0  0  0  0  0  0  0  0
   -1.6365   -1.0229   -1.7113 N   0  0  0  0  0  0  0  0  0  0  0  0
    5.3564    0.7189   -0.6524 O   0  0  0  0  0  1  0  0  0  0  0  0
    4.3665    0.0081   -1.3168 C   0  0  0  0  0  0  0  0  0  0  0  0
    4.5889   -1.2091   -1.5460 O   0  0  0  0  0  0  0  0  0  0  0  0
    3.0816    0.5955   -1.7643 C   0  0  0  0  0  0  0  0  0  0  0  0
    2.0002    0.1533   -0.7883 C   0  0  0  0  0  0  0  0  0  0  0  0
    2.4034    0.6725    0.5751 C   0  0  0  0  0  0  0  0  0  0  0  0
    1.3969    0.2673    1.5173 N   0  0  0  0  0  0  0  0  0  0  0  0
    0.0382    0.7025    1.3341 C   0  0  0  0  0  0  0  0  0  0  0  0
   -0.2034    1.4242    0.3460 O   0  0  0  0  0  0  0  0  0  0  0  0
   -0.9438    0.2575    2.3276 C   0  0  0  0  0  0  0  0  0  0  0  0
   -2.3386    0.6783    2.0668 C   0  0  0  0  0  0  0  0  0  0  0  0
   -2.8159    0.1203    0.7799 C   0  0  0  0  0  0  0  0  0  0  0  0
   -3.3919   -1.1536    0.8656 C   0  0  0  0  0  0  0  0  0  0  0  0
   -3.8635   -1.7143   -0.2973 C   0  0  0  0  0  0  0  0  0  0  0  0
   -3.7656   -1.0347   -1.4966 C   0  0  0  0  0  0  0  0  0  0  0  0
   -3.1932    0.2199   -1.5523 C   0  0  0  0  0  0  0  0  0  0  0  0
   -2.7161    0.7958   -0.3983 C   0  0  0  0  0  0  0  0  0  0  0  0
  2  1  1  1
  2  3  1  0
  3  4  1  0
  4  5  1  0
  5  6  2  0
  6  7  1  0
  7  8  2  0
  2  9  1  0
  9 10  1  0
 10 11  2  0
 11 12  1  0
 12 13  2  0
 13 14  1  0
 14 15  2  0
 15 16  1  0
 16 17  1  0
 17 18  2  0
 18 19  1  0
 19 20  2  0
 20 21  1  0
 20 22  1  0
 22 23  2  0
 23 24  1  0
 15 25  1  0
 25 26  2  0
 25 27  1  0
 27 28  1  0
 27 29  1  0
 29 30  2  0
 31 32  1  0
 32 33  2  0
 32 34  1  0
 34 35  1  0
 35 36  1  0
 36 37  1  0
 37 38  1  0
 38 39  2  0
 38 40  1  0
 40 41  1  0
 41 42  1  0
 42 43  2  0
 43 44  1  0
 44 45  2  0
 45 46  1  0
 46 47  2  0
  8  4  1  0
 30 10  1  0
 47 42  1  0
 29 13  1  0
 23 17  1  0
M  RAD  1  31   2
M  END

