
     RDKit          3D

 37 39  0  0  0  0  0  0  0  0999 V2000
   -2.5781    0.4232    0.1427 C   0  0  0  0  0  0  0  0  0  0  0  0
   -1.0818    0.1857    0.1356 C   0  0  0  0  0  0  0  0  0  0  0  0
   -0.2946    0.9904    0.6586 O   0  0  0  0  0  0  0  0  0  0  0  0
   -0.5200   -0.9604   -0.4660 N   0  0  0  0  0  0  0  0  0  0  0  0
    0.8591   -1.2501   -0.5181 C   0  0  0  0  0  0  0  0  0  0  0  0
    1.7699   -0.3386   -1.2110 C   0  0  0  0  0  0  0  0  0  0  0  0
    1.8455    0.9498   -0.7553 O   0  0  0  0  0  0  0  0  0  0  0  0
    6.1598   -1.8405   -0.5331 C   0  0  0  0  0  0  0  0  0  0  0  0
    4.5311   -1.7707   -0.8322 C   0  0  2  0  0  0  0  0  0  0  0  0
    4.5793   -0.2390   -1.4369 C   0  0  0  0  0  0  0  0  0  0  0  0
    5.0857    0.6296   -0.4392 N   0  0  0  0  0  0  0  0  0  0  0  0
    4.4931    1.3291    0.5088 N   0  0  0  0  0  0  0  0  0  0  0  0
    5.3950    2.0157    1.2248 C   0  0  0  0  0  0  0  0  0  0  0  0
    6.5912    1.7315    0.7013 N   0  0  0  0  0  0  0  0  0  0  0  0
    6.3695    0.9002   -0.2914 N   0  0  0  0  0  0  0  0  0  0  0  0
    4.1686   -1.3112    0.6341 N   0  0  0  0  0  0  0  0  0  0  0  0
    2.7705   -1.1269    0.8067 C   0  0  0  0  0  0  0  0  0  0  0  0
    2.3601   -0.7372    2.0161 N   0  0  0  0  0  0  0  0  0  0  0  0
    1.0748   -0.5302    2.3047 C   0  0  0  0  0  0  0  0  0  0  0  0
    0.1044   -0.7176    1.3357 C   0  0  0  0  0  0  0  0  0  0  0  0
   -1.2039   -0.5137    1.6036 C   0  0  0  0  0  0  0  0  0  0  0  0
   -2.1703   -0.7252    0.5517 C   0  0  0  0  0  0  0  0  0  0  0  0
   -3.4549   -0.5013    0.9063 O   0  0  0  0  0  0  0  0  0  0  0  0
   -4.4147    0.3721    0.5765 C   0  0  0  0  0  0  0  0  0  0  0  0
   -4.8277    1.2845    1.6110 C   0  0  0  0  0  0  0  0  0  0  0  0
   -5.7742    2.2060    1.4279 C   0  0  0  0  0  0  0  0  0  0  0  0
   -6.4230    2.3518    0.2404 C   0  0  0  0  0  0  0  0  0  0  0  0
   -7.3676    3.2953    0.1070 F   0  0  0  0  0  0  0  0  0  0  0  0
   -6.0795    1.5142   -0.7895 C   0  0  0  0  0  0  0  0  0  0  0  0
   -5.0888    0.5534   -0.5870 C   0  0  0  0  0  0  0  0  0  0  0  0
   -4.8966   -0.2232   -1.6820 F   0  0  0  0  0  0  0  0  0  0  0  0
   -1.6522   -1.1222   -0.6412 C   0  0  0  0  0  0  0  0  0  0  0  0
   -2.4494   -1.3306   -1.6036 O   0  0  0  0  0  0  0  0  0  0  0  0
   -0.3407   -1.3208   -0.8925 N   0  0  0  0  0  0  0  0  0  0  0  0
    0.0719   -1.7456   -2.2207 C   0  0  0  0  0  0  0  0  0  0  0  0
    0.5427   -1.1204    0.0903 C   0  0  0  0  0  0  0  0  0  0  0  0
    1.8458   -1.3069   -0.1213 N   0  0  0  0  0  0  0  0  0  0  0  0
  1  2  1  0
  2  3  2  0
  2  4  1  0
  4  5  1  0
  5  6  1  0
  6  7  1  0
  9  8  1  1
  9 10  1  0
 10 11  1  0
 11 12  1  0
 12 13  2  0
 13 14  1  0
 14 15  2  0
  9 16  1  0
 16 17  1  0
 17 18  2  0
 18 19  1  0
 19 20  2  0
 20 21  1  0
 21 22  2  0
 22 23  1  0
 23 24  1  0
 24 25  2  0
 25 26  1  0
 26 27  2  0
 27 28  1  0
 27 29  1  0
 29 30  2  0
 30 31  1  0
 22 32  1  0
 32 33  2  0
 32 34  1  0
 34 35  1  0
 34 36  1  0
 36 37  2  0
 15 11  1  0
 37 17  1  0
 36 20  1  0
 30 24  1  0
M  END

