
     RDKit          2D

 42 45  0  0  0  0  0  0  0  0999 V2000
    7.2760   -2.5981    0.0000 C   0  0  0  0  0  0  0  0  0  0  0  0
    5.7760   -2.5981    0.0000 C   0  0  0  0  0  0  0  0  0  0  0  0
    5.0260   -3.8971    0.0000 O   0  0  0  0  0  0  0  0  0  0  0  0
    5.0260   -1.2990    0.0000 C   0  0  0  0  0  0  0  0  0  0  0  0
    3.5260   -1.2990    0.0000 N   0  0  0  0  0  0  0  0  0  0  0  0
    2.7760    0.0000    0.0000 C   0  0  0  0  0  0  0  0  0  0  0  0
    3.5260    1.2990    0.0000 O   0  0  0  0  0  0  0  0  0  0  0  0
    1.2760    0.0000    0.0000 C   0  0  0  0  0  0  0  0  0  0  0  0
    0.3943    1.2135    0.0000 C   0  0  0  0  0  0  0  0  0  0  0  0
   -1.0323    0.7500    0.0000 C   0  0  0  0  0  0  0  0  0  0  0  0
   -1.0323   -0.7500    0.0000 C   0  0  0  0  0  0  0  0  0  0  0  0
    0.3943   -1.2135    0.0000 N   0  0  0  0  0  0  0  0  0  0  0  0
    1.5000    4.6731    0.0000 C   0  0  0  0  0  0  0  0  0  0  0  0
    0.7500    5.9721    0.0000 C   0  0  0  0  0  0  0  0  0  0  0  0
   -0.7500    5.9721    0.0000 C   0  0  0  0  0  0  0  0  0  0  0  0
   -1.5000    4.6731    0.0000 N   0  0  0  0  0  0  0  0  0  0  0  0
   -0.8899    3.3027    0.0000 N   0  0  0  0  0  0  0  0  0  0  0  0
   -2.0046    2.2990    0.0000 C   0  0  0  0  0  0  0  0  0  0  0  0
   -3.3037    3.0490    0.0000 N   0  0  0  0  0  0  0  0  0  0  0  0
   -2.9918    4.5163    0.0000 N   0  0  0  0  0  0  0  0  0  0  0  0
    1.5000    7.2711    0.0000 N   0  0  0  0  0  0  0  0  0  0  0  0
    0.7500    8.5702    0.0000 C   0  0  0  0  0  0  0  0  0  0  0  0
    1.5000    9.8692    0.0000 N   0  0  0  0  0  0  0  0  0  0  0  0
    0.7500   11.1682    0.0000 C   0  0  0  0  0  0  0  0  0  0  0  0
   -0.7500   11.1682    0.0000 C   0  0  0  0  0  0  0  0  0  0  0  0
   -1.5000   12.4673    0.0000 C   0  0  0  0  0  0  0  0  0  0  0  0
   -3.0000   12.4673    0.0000 C   0  0  0  0  0  0  0  0  0  0  0  0
   -3.7500   13.7663    0.0000 O   0  0  0  0  0  0  0  0  0  0  0  0
   -3.0000   15.0654    0.0000 C   0  0  0  0  0  0  0  0  0  0  0  0
   -1.5000   15.0654    0.0000 C   0  0  0  0  0  0  0  0  0  0  0  0
   -0.7500   16.3644    0.0000 C   0  0  0  0  0  0  0  0  0  0  0  0
   -1.5000   17.6634    0.0000 C   0  0  0  0  0  0  0  0  0  0  0  0
   -0.7500   18.9625    0.0000 F   0  0  0  0  0  0  0  0  0  0  0  0
   -3.0000   17.6634    0.0000 C   0  0  0  0  0  0  0  0  0  0  0  0
   -3.7500   16.3644    0.0000 C   0  0  0  0  0  0  0  0  0  0  0  0
   -5.2500   16.3644    0.0000 F   0  0  0  0  0  0  0  0  0  0  0  0
   -3.7500   11.1682    0.0000 C   0  0  0  0  0  0  0  0  0  0  0  0
   -5.2500   11.1682    0.0000 O   0  0  0  0  0  0  0  0  0  0  0  0
   -3.0000    9.8692    0.0000 N   0  0  0  0  0  0  0  0  0  0  0  0
   -3.7500    8.5702    0.0000 C   0  0  0  0  0  0  0  0  0  0  0  0
   -1.5000    9.8692    0.0000 C   0  0  0  0  0  0  0  0  0  0  0  0
   -0.7500    8.5702    0.0000 N   0  0  0  0  0  0  0  0  0  0  0  0
  2  1  1  1
  2  3  1  0
  2  4  1  0
  4  5  1  0
  5  6  1  0
  6  7  2  0
  8  6  1  1
  8  9  1  0
  9 10  1  0
 10 11  1  0
 11 12  1  0
 14 13  1  6
 14 15  1  0
 15 16  1  0
 16 17  1  0
 17 18  2  0
 18 19  1  0
 19 20  2  0
 14 21  1  0
 21 22  1  0
 22 23  2  0
 23 24  1  0
 24 25  2  0
 25 26  1  0
 26 27  2  0
 27 28  1  0
 28 29  1  0
 29 30  2  0
 30 31  1  0
 31 32  2  0
 32 33  1  0
 32 34  1  0
 34 35  2  0
 35 36  1  0
 27 37  1  0
 37 38  2  0
 37 39  1  0
 39 40  1  0
 39 41  1  0
 41 42  2  0
 12  8  1  0
 20 16  1  0
 42 22  1  0
 41 25  1  0
 35 29  1  0
M  END

