
     RDKit          3D

 49 53  0  0  0  0  0  0  0  0999 V2000
    4.9563    1.5538    1.5781 C   0  0  0  0  0  0  0  0  0  0  0  0
    4.6313    0.8924    0.2609 C   0  0  0  0  0  0  0  0  0  0  0  0
    5.1433   -0.6530    0.4434 C   0  0  2  0  0  0  0  0  0  0  0  0
    4.6877   -1.1044   -1.0566 C   0  0  0  0  0  0  0  0  0  0  0  0
    3.8133   -1.1185    1.2426 C   0  0  0  0  0  0  0  0  0  0  0  0
    2.6218   -0.9389    0.4949 C   0  0  0  0  0  0  0  0  0  0  0  0
    2.6423   -0.4130   -0.6391 O   0  0  0  0  0  0  0  0  0  0  0  0
    1.3657   -1.3442    0.9961 N   0  0  0  0  0  0  0  0  0  0  0  0
    0.1327   -1.1847    0.2799 C   0  0  0  0  0  0  0  0  0  0  0  0
   -0.1297    0.2889   -0.0174 C   0  0  0  0  0  0  0  0  0  0  0  0
   -1.3953    0.4583   -0.7513 C   0  0  0  0  0  0  0  0  0  0  0  0
   -1.6028    0.7225   -2.0857 C   0  0  0  0  0  0  0  0  0  0  0  0
   -2.9369    0.7974   -2.3266 N   0  0  0  0  0  0  0  0  0  0  0  0
   -3.6137    0.5891   -1.1840 C   0  0  0  0  0  0  0  0  0  0  0  0
   -4.9411    0.5487   -0.8309 C   0  0  0  0  0  0  0  0  0  0  0  0
   -5.3062    0.3046    0.4640 C   0  0  0  0  0  0  0  0  0  0  0  0
   -4.3773    0.0964    1.4329 C   0  0  0  0  0  0  0  0  0  0  0  0
   -3.0255    0.1295    1.1145 C   0  0  0  0  0  0  0  0  0  0  0  0
   -2.6661    0.3751   -0.1874 C   0  0  0  0  0  0  0  0  0  0  0  0
   -6.1648   -1.4651   -1.5808 C   0  0  0  0  0  0  0  0  0  0  0  0
   -4.8605   -2.1342   -0.8197 C   0  0  2  0  0  0  0  0  0  0  0  0
   -5.3678   -1.7206    0.6876 C   0  0  0  0  0  0  0  0  0  0  0  0
   -5.4964   -0.3197    0.7620 N   0  0  0  0  0  0  0  0  0  0  0  0
   -4.6052    0.5803    1.1117 N   0  0  0  0  0  0  0  0  0  0  0  0
   -5.1539    1.7961    1.0409 C   0  0  0  0  0  0  0  0  0  0  0  0
   -6.4220    1.6393    0.6351 N   0  0  0  0  0  0  0  0  0  0  0  0
   -6.6240    0.3483    0.4671 N   0  0  0  0  0  0  0  0  0  0  0  0
   -3.9557   -0.8614   -1.0096 N   0  0  0  0  0  0  0  0  0  0  0  0
   -2.6335   -1.0176   -0.4539 C   0  0  0  0  0  0  0  0  0  0  0  0
   -2.2331   -2.1457    0.1610 N   0  0  0  0  0  0  0  0  0  0  0  0
   -0.9725   -2.2027    0.6529 C   0  0  0  0  0  0  0  0  0  0  0  0
   -0.1161   -1.1269    0.5265 C   0  0  0  0  0  0  0  0  0  0  0  0
    1.1767   -1.1373    1.0110 C   0  0  0  0  0  0  0  0  0  0  0  0
    1.9884   -0.0189    0.8504 C   0  0  0  0  0  0  0  0  0  0  0  0
    3.2842    0.0016    1.3232 O   0  0  0  0  0  0  0  0  0  0  0  0
    4.3713    0.1929    0.4829 C   0  0  0  0  0  0  0  0  0  0  0  0
    4.2616    0.3773   -0.8796 C   0  0  0  0  0  0  0  0  0  0  0  0
    5.3793    0.5657   -1.6851 C   0  0  0  0  0  0  0  0  0  0  0  0
    6.6523    0.5771   -1.1579 C   0  0  0  0  0  0  0  0  0  0  0  0
    7.7500    0.7616   -1.9449 F   0  0  0  0  0  0  0  0  0  0  0  0
    6.7531    0.3921    0.2052 C   0  0  0  0  0  0  0  0  0  0  0  0
    5.6447    0.2032    1.0177 C   0  0  0  0  0  0  0  0  0  0  0  0
    5.7864    0.0228    2.3676 F   0  0  0  0  0  0  0  0  0  0  0  0
    1.5353    1.1235    0.2099 C   0  0  0  0  0  0  0  0  0  0  0  0
    2.2949    2.1183    0.0810 O   0  0  0  0  0  0  0  0  0  0  0  0
    0.2706    1.1004   -0.2503 N   0  0  0  0  0  0  0  0  0  0  0  0
   -0.2038    2.2950   -0.9202 C   0  0  0  0  0  0  0  0  0  0  0  0
   -0.5366    0.0263   -0.1063 C   0  0  0  0  0  0  0  0  0  0  0  0
   -1.8031    0.0283   -0.5776 N   0  0  0  0  0  0  0  0  0  0  0  0
  1  2  1  0
  2  3  1  0
  3  4  1  6
  3  5  1  0
  5  6  1  0
  6  7  2  0
  6  8  1  0
  8  9  1  0
  9 10  1  0
 10 11  1  0
 11 12  2  0
 12 13  1  0
 13 14  1  0
 14 15  2  0
 15 16  1  0
 16 17  2  0
 17 18  1  0
 18 19  2  0
 21 20  1  6
 21 22  1  0
 22 23  1  0
 23 24  1  0
 24 25  2  0
 25 26  1  0
 26 27  2  0
 21 28  1  0
 28 29  1  0
 29 30  2  0
 30 31  1  0
 31 32  2  0
 32 33  1  0
 33 34  2  0
 34 35  1  0
 35 36  1  0
 36 37  2  0
 37 38  1  0
 38 39  2  0
 39 40  1  0
 39 41  1  0
 41 42  2  0
 42 43  1  0
 34 44  1  0
 44 45  2  0
 44 46  1  0
 46 47  1  0
 46 48  1  0
 48 49  2  0
 19 11  1  0
 27 23  1  0
 49 29  1  0
 19 14  1  0
 48 32  1  0
 42 36  1  0
M  END

