
     RDKit          3D

 39 42  0  0  0  0  0  0  0  0999 V2000
    3.3372    0.0793   -0.3161 C   0  0  0  0  0  0  0  0  0  0  0  0
    2.1203   -0.7142   -0.2606 N   0  0  0  0  0  0  0  0  0  0  0  0
    0.9372    0.0054    0.1170 C   0  0  0  0  0  0  0  0  0  0  0  0
    0.9417    1.2014    0.3972 O   0  0  0  0  0  0  0  0  0  0  0  0
   -0.4173   -0.8597    0.1603 C   0  0  2  0  0  0  0  0  0  0  0  0
   -1.0325   -0.0930   -1.1732 C   0  0  0  0  0  0  0  0  0  0  0  0
   -2.4643   -0.2283   -0.7189 C   0  0  0  0  0  0  0  0  0  0  0  0
   -2.2965    0.5410    0.5941 C   0  0  0  0  0  0  0  0  0  0  0  0
   -1.1257    0.0682    1.2001 N   0  0  0  0  0  0  0  0  0  0  0  0
    4.1919   -0.2058    0.8637 C   0  0  0  0  0  0  0  0  0  0  0  0
    4.7231   -0.5671   -0.6665 C   0  0  2  0  0  0  0  0  0  0  0  0
    5.7503    0.7412   -0.7042 C   0  0  0  0  0  0  0  0  0  0  0  0
    6.6551    0.5148    0.4069 N   0  0  0  0  0  0  0  0  0  0  0  0
    6.5816    0.8770    1.6642 N   0  0  0  0  0  0  0  0  0  0  0  0
    7.6586    0.4426    2.3403 C   0  0  0  0  0  0  0  0  0  0  0  0
    8.4209   -0.2132    1.4531 N   0  0  0  0  0  0  0  0  0  0  0  0
    7.7821   -0.1476    0.2995 N   0  0  0  0  0  0  0  0  0  0  0  0
    3.5485    0.2399   -1.3513 N   0  0  0  0  0  0  0  0  0  0  0  0
    2.2506   -0.1993   -1.0460 C   0  0  0  0  0  0  0  0  0  0  0  0
    2.0728   -1.2437   -0.2188 N   0  0  0  0  0  0  0  0  0  0  0  0
    0.8628   -1.7100    0.1111 C   0  0  0  0  0  0  0  0  0  0  0  0
   -0.2484   -1.1028   -0.4121 C   0  0  0  0  0  0  0  0  0  0  0  0
   -1.4992   -1.5435   -0.1040 C   0  0  0  0  0  0  0  0  0  0  0  0
   -2.6188   -0.9304   -0.6323 C   0  0  0  0  0  0  0  0  0  0  0  0
   -3.9049   -1.3302   -0.3581 O   0  0  0  0  0  0  0  0  0  0  0  0
   -4.8210   -0.4977    0.2292 C   0  0  0  0  0  0  0  0  0  0  0  0
   -5.9883   -0.1874   -0.4287 C   0  0  0  0  0  0  0  0  0  0  0  0
   -6.8788    0.6403    0.1767 C   0  0  0  0  0  0  0  0  0  0  0  0
   -6.6483    1.1758    1.4249 C   0  0  0  0  0  0  0  0  0  0  0  0
   -7.5638    2.0059    2.0081 F   0  0  0  0  0  0  0  0  0  0  0  0
   -5.4793    0.8584    2.0713 C   0  0  0  0  0  0  0  0  0  0  0  0
   -4.5529    0.0164    1.4773 C   0  0  0  0  0  0  0  0  0  0  0  0
   -3.4190   -0.2690    2.1464 F   0  0  0  0  0  0  0  0  0  0  0  0
   -2.4120    0.1366   -1.4765 C   0  0  0  0  0  0  0  0  0  0  0  0
   -3.3816    0.7533   -2.0025 O   0  0  0  0  0  0  0  0  0  0  0  0
   -1.1710    0.5768   -1.7846 N   0  0  0  0  0  0  0  0  0  0  0  0
   -0.9780    1.7040   -2.6773 C   0  0  0  0  0  0  0  0  0  0  0  0
   -0.0839   -0.0387   -1.2555 C   0  0  0  0  0  0  0  0  0  0  0  0
    1.1509    0.3897   -1.5544 N   0  0  0  0  0  0  0  0  0  0  0  0
  1  2  1  0
  2  3  1  0
  3  4  2  0
  5  3  1  6
  5  6  1  0
  6  7  1  0
  7  8  1  0
  8  9  1  0
 11 10  1  1
 11 12  1  0
 12 13  1  0
 13 14  1  0
 14 15  2  0
 15 16  1  0
 16 17  2  0
 11 18  1  0
 18 19  1  0
 19 20  2  0
 20 21  1  0
 21 22  2  0
 22 23  1  0
 23 24  2  0
 24 25  1  0
 25 26  1  0
 26 27  2  0
 27 28  1  0
 28 29  2  0
 29 30  1  0
 29 31  1  0
 31 32  2  0
 32 33  1  0
 24 34  1  0
 34 35  2  0
 34 36  1  0
 36 37  1  0
 36 38  1  0
 38 39  2  0
  9  5  1  0
 17 13  1  0
 39 19  1  0
 38 22  1  0
 32 26  1  0
M  END

