
     RDKit          3D

 46 49  0  0  0  0  0  0  0  0999 V2000
    4.6221   -1.8550    1.4640 C   0  0  0  0  0  0  0  0  0  0  0  0
    3.7779   -0.9013    0.6464 C   0  0  0  0  0  0  0  0  0  0  0  0
    4.6474    0.0349   -0.1579 C   0  0  0  0  0  0  0  0  0  0  0  0
    2.8480   -1.6760   -0.2696 C   0  0  0  0  0  0  0  0  0  0  0  0
    2.0445   -0.6813   -1.0470 C   0  0  0  0  0  0  0  0  0  0  0  0
    1.2705    0.1516   -0.0947 C   0  0  0  0  0  0  0  0  0  0  0  0
    1.3368   -0.0172    1.1459 O   0  0  0  0  0  0  0  0  0  0  0  0
    0.4134    1.1863   -0.5649 N   0  0  0  0  0  0  0  0  0  0  0  0
   -0.3624    2.0287    0.2887 C   0  0  0  0  0  0  0  0  0  0  0  0
   -1.3438    1.2826    1.1409 C   0  0  0  0  0  0  0  0  0  0  0  0
   -2.3263    0.5157    0.3346 C   0  0  0  0  0  0  0  0  0  0  0  0
   -2.0094   -0.7822   -0.0038 C   0  0  0  0  0  0  0  0  0  0  0  0
   -2.8836   -1.5431   -0.7516 C   0  0  0  0  0  0  0  0  0  0  0  0
   -4.0971   -1.0535   -1.1909 C   0  0  0  0  0  0  0  0  0  0  0  0
   -4.4038    0.2528   -0.8439 C   0  0  0  0  0  0  0  0  0  0  0  0
   -3.5343    1.0198   -0.0962 C   0  0  0  0  0  0  0  0  0  0  0  0
   -5.7103   -1.6631    1.0240 C   0  0  0  0  0  0  0  0  0  0  0  0
   -4.2879   -0.8078    0.9388 C   0  0  2  0  0  0  0  0  0  0  0  0
   -4.8430    0.1129   -0.3333 C   0  0  0  0  0  0  0  0  0  0  0  0
   -6.0164    0.7737    0.2100 N   0  0  0  0  0  0  0  0  0  0  0  0
   -7.2299    0.2861    0.1590 N   0  0  0  0  0  0  0  0  0  0  0  0
   -8.1127    1.1364    0.7526 C   0  0  0  0  0  0  0  0  0  0  0  0
   -7.3580    2.1677    1.1655 N   0  0  0  0  0  0  0  0  0  0  0  0
   -6.0951    1.9367    0.8320 N   0  0  0  0  0  0  0  0  0  0  0  0
   -3.5971   -1.8987    0.0213 N   0  0  0  0  0  0  0  0  0  0  0  0
   -2.2923   -1.6688   -0.3793 C   0  0  0  0  0  0  0  0  0  0  0  0
   -1.6968   -2.5809   -1.1538 N   0  0  0  0  0  0  0  0  0  0  0  0
   -0.4129   -2.4255   -1.5891 C   0  0  0  0  0  0  0  0  0  0  0  0
    0.3042   -1.3149   -1.2366 C   0  0  0  0  0  0  0  0  0  0  0  0
    1.6245   -1.1108   -1.6585 C   0  0  0  0  0  0  0  0  0  0  0  0
    2.3391    0.0145   -1.2965 C   0  0  0  0  0  0  0  0  0  0  0  0
    3.6478    0.1996   -1.7247 O   0  0  0  0  0  0  0  0  0  0  0  0
    4.7304    0.3316   -0.9019 C   0  0  0  0  0  0  0  0  0  0  0  0
    5.4579    1.5229   -0.9995 C   0  0  0  0  0  0  0  0  0  0  0  0
    6.5552    1.7385   -0.2138 C   0  0  0  0  0  0  0  0  0  0  0  0
    6.9480    0.7701    0.6844 C   0  0  0  0  0  0  0  0  0  0  0  0
    8.0406    1.0057    1.4544 F   0  0  0  0  0  0  0  0  0  0  0  0
    6.2440   -0.4138    0.7973 C   0  0  0  0  0  0  0  0  0  0  0  0
    5.1371   -0.6391    0.0092 C   0  0  0  0  0  0  0  0  0  0  0  0
    4.4267   -1.7872    0.0956 F   0  0  0  0  0  0  0  0  0  0  0  0
    1.6661    0.9160   -0.4964 C   0  0  0  0  0  0  0  0  0  0  0  0
    2.2938    1.9579   -0.1472 O   0  0  0  0  0  0  0  0  0  0  0  0
    0.3951    0.7079   -0.0970 N   0  0  0  0  0  0  0  0  0  0  0  0
   -0.2511    1.6948    0.7418 C   0  0  0  0  0  0  0  0  0  0  0  0
   -0.3156   -0.3787   -0.4382 C   0  0  0  0  0  0  0  0  0  0  0  0
   -1.5915   -0.5838   -0.0350 N   0  0  0  0  0  0  0  0  0  0  0  0
  1  2  1  0
  2  3  1  0
  2  4  1  0
  4  5  1  0
  5  6  1  0
  6  7  2  0
  6  8  1  0
  8  9  1  0
  9 10  1  0
 10 11  1  0
 11 12  2  0
 12 13  1  0
 13 14  2  0
 14 15  1  0
 15 16  2  0
 18 17  1  6
 18 19  1  0
 19 20  1  0
 20 21  1  0
 21 22  2  0
 22 23  1  0
 23 24  2  0
 18 25  1  0
 25 26  1  0
 26 27  2  0
 27 28  1  0
 28 29  2  0
 29 30  1  0
 30 31  2  0
 31 32  1  0
 32 33  1  0
 33 34  2  0
 34 35  1  0
 35 36  2  0
 36 37  1  0
 36 38  1  0
 38 39  2  0
 39 40  1  0
 31 41  1  0
 41 42  2  0
 41 43  1  0
 43 44  1  0
 43 45  1  0
 45 46  2  0
 16 11  1  0
 24 20  1  0
 46 26  1  0
 45 29  1  0
 39 33  1  0
M  END

