
     RDKit          3D

 46 49  0  0  0  0  0  0  0  0999 V2000
    3.5983    0.3001    3.6821 C   0  0  0  0  0  0  0  0  0  0  0  0
    4.6503   -0.0709    2.4553 C   0  0  2  0  0  0  0  0  0  0  0  0
    4.1182    1.1590    1.4897 C   0  0  0  0  0  0  0  0  0  0  0  0
    4.9797    0.9549    0.3332 N   0  0  0  0  0  0  0  0  0  0  0  0
    4.7914    0.2253   -0.7356 N   0  0  0  0  0  0  0  0  0  0  0  0
    5.8902    0.3711   -1.5176 C   0  0  0  0  0  0  0  0  0  0  0  0
    6.7357    1.1917   -0.9100 N   0  0  0  0  0  0  0  0  0  0  0  0
    6.1605    1.5422    0.2277 N   0  0  0  0  0  0  0  0  0  0  0  0
    3.7210   -1.1581    1.8063 N   0  0  0  0  0  0  0  0  0  0  0  0
    2.4361   -0.8092    1.3943 C   0  0  0  0  0  0  0  0  0  0  0  0
    1.9008    0.4235    1.5075 N   0  0  0  0  0  0  0  0  0  0  0  0
    0.6542    0.7233    1.0975 C   0  0  0  0  0  0  0  0  0  0  0  0
   -0.1493   -0.2547    0.5265 C   0  0  0  0  0  0  0  0  0  0  0  0
   -1.4311    0.0177    0.0956 C   0  0  0  0  0  0  0  0  0  0  0  0
   -2.1673   -1.0046   -0.4607 C   0  0  0  0  0  0  0  0  0  0  0  0
   -3.4432   -0.8942   -0.9318 O   0  0  0  0  0  0  0  0  0  0  0  0
   -4.2144    0.2411   -0.9365 C   0  0  0  0  0  0  0  0  0  0  0  0
   -4.6566    0.7108   -2.1621 C   0  0  0  0  0  0  0  0  0  0  0  0
   -5.4389    1.8534   -2.2276 C   0  0  0  0  0  0  0  0  0  0  0  0
   -5.7780    2.5226   -1.0836 C   0  0  0  0  0  0  0  0  0  0  0  0
   -6.5338    3.6227   -1.1727 F   0  0  0  0  0  0  0  0  0  0  0  0
   -5.3401    2.0587    0.1373 C   0  0  0  0  0  0  0  0  0  0  0  0
   -4.5577    0.9188    0.2229 C   0  0  0  0  0  0  0  0  0  0  0  0
   -4.1302    0.4655    1.4122 F   0  0  0  0  0  0  0  0  0  0  0  0
   -1.5746   -2.2687   -0.5596 C   0  0  0  0  0  0  0  0  0  0  0  0
   -2.2053   -3.2354   -1.0601 O   0  0  0  0  0  0  0  0  0  0  0  0
   -0.3258   -2.5023   -0.1315 N   0  0  0  0  0  0  0  0  0  0  0  0
    0.2386   -3.8396   -0.2607 C   0  0  0  0  0  0  0  0  0  0  0  0
    0.4100   -1.5105    0.4166 C   0  0  0  0  0  0  0  0  0  0  0  0
    1.6612   -1.7543    0.8430 N   0  0  0  0  0  0  0  0  0  0  0  0
    2.1052    1.6422   -1.0025 N   0  0  0  0  0  4  0  0  0  0  0  0
    3.5531    1.6580   -1.0698 C   0  0  0  0  0  0  0  0  0  0  0  0
    4.1714    0.4232   -0.4766 C   0  0  0  0  0  0  0  0  0  0  0  0
    3.8439    0.2116    0.9643 C   0  0  0  0  0  0  0  0  0  0  0  0
    2.3683    0.0812    1.1489 C   0  0  0  0  0  0  0  0  0  0  0  0
    1.8458   -1.0940    0.3578 C   0  0  0  0  0  0  0  0  0  0  0  0
    0.3572   -1.2138    0.5529 C   0  0  0  0  0  0  0  0  0  0  0  0
   -0.1923   -0.3694    1.2990 O   0  0  0  0  0  0  0  0  0  0  0  0
   -0.3241   -2.2472   -0.1001 N   0  0  0  0  0  0  0  0  0  0  0  0
   -1.6937   -2.4820   -0.0336 C   0  0  0  0  0  0  0  0  0  0  0  0
   -2.6420   -1.5162   -0.5671 C   0  0  0  0  0  0  0  0  0  0  0  0
   -2.6798   -0.1534   -0.0846 C   0  0  0  0  0  0  0  0  0  0  0  0
   -3.3215    0.4335    0.9759 C   0  0  0  0  0  0  0  0  0  0  0  0
   -3.0740    1.7471    0.9671 N   0  0  0  0  0  0  0  0  0  0  0  0
   -2.2824    2.0113   -0.0842 C   0  0  0  0  0  0  0  0  0  0  0  0
   -2.0349    0.8678   -0.7316 N   0  0  0  0  0  0  0  0  0  0  0  0
  2  1  1  1
  2  3  1  0
  3  4  1  0
  4  5  1  0
  5  6  2  0
  6  7  1  0
  7  8  2  0
  2  9  1  0
  9 10  1  0
 10 11  2  0
 11 12  1  0
 12 13  2  0
 13 14  1  0
 14 15  2  0
 15 16  1  0
 16 17  1  0
 17 18  2  0
 18 19  1  0
 19 20  2  0
 20 21  1  0
 20 22  1  0
 22 23  2  0
 23 24  1  0
 15 25  1  0
 25 26  2  0
 25 27  1  0
 27 28  1  0
 27 29  1  0
 29 30  2  0
 31 32  1  0
 32 33  1  0
 33 34  1  0
 34 35  1  0
 35 36  1  0
 36 37  1  0
 37 38  2  0
 37 39  1  0
 39 40  1  0
 40 41  1  0
 41 42  1  0
 42 43  2  0
 43 44  1  0
 44 45  1  0
 45 46  2  0
  8  4  1  0
 30 10  1  0
 46 42  1  0
 29 13  1  0
 23 17  1  0
M  CHG  1  31   1
M  END

