
     RDKit          3D

 42 45  0  0  0  0  0  0  0  0999 V2000
   -5.6333   -3.2465   -0.3132 C   0  0  0  0  0  0  0  0  0  0  0  0
   -4.9668   -1.9268    0.5158 C   0  0  2  0  0  0  0  0  0  0  0  0
   -5.8412   -0.8889   -0.4294 C   0  0  0  0  0  0  0  0  0  0  0  0
   -5.5079    0.4423    0.0283 N   0  0  0  0  0  0  0  0  0  0  0  0
   -6.1442    1.0681    1.0031 N   0  0  0  0  0  0  0  0  0  0  0  0
   -5.6036    2.2683    1.1454 C   0  0  0  0  0  0  0  0  0  0  0  0
   -4.6276    2.3910    0.2567 N   0  0  0  0  0  0  0  0  0  0  0  0
   -4.5897    1.2764   -0.4051 N   0  0  0  0  0  0  0  0  0  0  0  0
   -3.7120   -1.9058   -0.4372 N   0  0  0  0  0  0  0  0  0  0  0  0
   -2.5992   -1.1632   -0.0222 C   0  0  0  0  0  0  0  0  0  0  0  0
   -2.5657   -0.5091    1.1296 N   0  0  0  0  0  0  0  0  0  0  0  0
   -1.4447    0.1920    1.4627 C   0  0  0  0  0  0  0  0  0  0  0  0
   -0.3557    0.2357    0.6368 C   0  0  0  0  0  0  0  0  0  0  0  0
    0.8016    0.9236    0.9157 C   0  0  0  0  0  0  0  0  0  0  0  0
    1.8363    0.8893   -0.0059 C   0  0  0  0  0  0  0  0  0  0  0  0
    3.0166    1.5639    0.2300 O   0  0  0  0  0  0  0  0  0  0  0  0
    4.2569    0.9624    0.3078 C   0  0  0  0  0  0  0  0  0  0  0  0
    5.2121    1.3763   -0.6052 C   0  0  0  0  0  0  0  0  0  0  0  0
    6.4699    0.7971   -0.5605 C   0  0  0  0  0  0  0  0  0  0  0  0
    6.7250   -0.1696    0.3906 C   0  0  0  0  0  0  0  0  0  0  0  0
    7.9646   -0.7194    0.4113 F   0  0  0  0  0  0  0  0  0  0  0  0
    5.7640   -0.5571    1.2770 C   0  0  0  0  0  0  0  0  0  0  0  0
    4.5004    0.0094    1.2491 C   0  0  0  0  0  0  0  0  0  0  0  0
    3.5435   -0.3814    2.1373 F   0  0  0  0  0  0  0  0  0  0  0  0
    1.7390    0.1862   -1.1932 C   0  0  0  0  0  0  0  0  0  0  0  0
    2.6722    0.1464   -2.0404 O   0  0  0  0  0  0  0  0  0  0  0  0
    0.5867   -0.4724   -1.4237 N   0  0  0  0  0  0  0  0  0  0  0  0
    0.4661   -1.2087   -2.6514 C   0  0  0  0  0  0  0  0  0  0  0  0
   -0.4177   -0.4533   -0.5546 C   0  0  0  0  0  0  0  0  0  0  0  0
   -1.5455   -1.1264   -0.8315 N   0  0  0  0  0  0  0  0  0  0  0  0
   -4.3774   -1.1254    0.7001 N   0  0  0  0  0  0  0  0  0  0  0  0
   -3.3124   -0.3550    0.1584 C   0  0  0  0  0  0  0  0  0  0  0  0
   -3.6193    0.6170   -0.5794 O   0  0  0  0  0  0  0  0  0  0  0  0
   -1.9274   -0.7413    0.4932 C   0  0  0  0  0  0  0  0  0  0  0  0
   -0.9003    0.1401   -0.1329 C   0  0  0  0  0  0  0  0  0  0  0  0
    0.4531   -0.3688    0.2927 C   0  0  0  0  0  0  0  0  0  0  0  0
    0.5640   -1.3701    1.0460 O   0  0  0  0  0  0  0  0  0  0  0  0
    1.6399    0.2723   -0.1483 N   0  0  0  0  0  0  0  0  0  0  0  0
    1.6991    1.4331   -1.0156 C   0  0  0  0  0  0  0  0  0  0  0  0
    2.9844    1.3115   -1.7815 C   0  0  0  0  0  0  0  0  0  0  0  0
    3.8015    0.2888   -1.0384 C   0  0  0  0  0  0  0  0  0  0  0  0
    2.9949   -0.1022    0.1767 C   0  0  0  0  0  0  0  0  0  0  0  0
  2  1  1  6
  2  3  1  0
  3  4  1  0
  4  5  1  0
  5  6  2  0
  6  7  1  0
  7  8  2  0
  2  9  1  0
  9 10  1  0
 10 11  2  0
 11 12  1  0
 12 13  2  0
 13 14  1  0
 14 15  2  0
 15 16  1  0
 16 17  1  0
 17 18  2  0
 18 19  1  0
 19 20  2  0
 20 21  1  0
 20 22  1  0
 22 23  2  0
 23 24  1  0
 15 25  1  0
 25 26  2  0
 25 27  1  0
 27 28  1  0
 27 29  1  0
 29 30  2  0
 31 32  1  0
 32 33  2  0
 32 34  1  0
 34 35  1  0
 35 36  1  0
 36 37  2  0
 36 38  1  0
 38 39  1  0
 39 40  1  0
 40 41  1  0
 41 42  1  0
  8  4  1  0
 30 10  1  0
 42 38  1  0
 29 13  1  0
 23 17  1  0
M  END

