
     RDKit          3D

 42 44  0  0  0  0  0  0  0  0999 V2000
    4.0461   -1.7877    0.0985 C   0  0  0  0  0  0  0  0  0  0  0  0
    3.8781   -0.2862    0.1428 C   0  0  0  0  0  0  0  0  0  0  0  0
    2.6485    0.0278   -0.9165 C   0  0  2  0  0  0  0  0  0  0  0  0
    2.7291    1.6651   -0.6322 C   0  0  0  0  0  0  0  0  0  0  0  0
    1.4927   -0.1749    0.2626 C   0  0  0  0  0  0  0  0  0  0  0  0
    0.3231    0.0747   -0.5306 N   0  0  0  0  0  0  0  0  0  0  0  0
   -1.0009    0.0356   -0.0231 C   0  0  0  0  0  0  0  0  0  0  0  0
   -1.1509   -0.2306    1.1777 O   0  0  0  0  0  0  0  0  0  0  0  0
   -2.0852    0.3188   -0.9850 C   0  0  0  0  0  0  0  0  0  0  0  0
   -3.4471    0.2570   -0.3688 C   0  0  0  0  0  0  0  0  0  0  0  0
   -3.6433    1.2418    0.7572 C   0  0  0  0  0  0  0  0  0  0  0  0
   -3.7903   -1.1414    0.0939 C   0  0  0  0  0  0  0  0  0  0  0  0
    3.7934   -0.0168    0.2474 C   0  0  0  0  0  0  0  0  0  0  0  0
    4.3501    0.2612   -1.2798 C   0  0  2  0  0  0  0  0  0  0  0  0
    5.7493    0.9559   -0.7363 C   0  0  0  0  0  0  0  0  0  0  0  0
    6.3427   -0.1283    0.0344 N   0  0  0  0  0  0  0  0  0  0  0  0
    6.1298   -0.3337    1.3089 N   0  0  0  0  0  0  0  0  0  0  0  0
    6.8320   -1.4090    1.6789 C   0  0  0  0  0  0  0  0  0  0  0  0
    7.4841   -1.8683    0.6153 N   0  0  0  0  0  0  0  0  0  0  0  0
    7.1695   -1.0744   -0.3651 N   0  0  0  0  0  0  0  0  0  0  0  0
    3.6379    1.6470   -1.4666 N   0  0  0  0  0  0  0  0  0  0  0  0
    2.2222    1.6495   -1.3731 C   0  0  0  0  0  0  0  0  0  0  0  0
    1.5245    2.7847   -1.5186 N   0  0  0  0  0  0  0  0  0  0  0  0
    0.1625    2.7678   -1.4254 C   0  0  0  0  0  0  0  0  0  0  0  0
   -0.5258    1.5990   -1.1824 C   0  0  0  0  0  0  0  0  0  0  0  0
   -1.9011    1.5330   -1.0801 C   0  0  0  0  0  0  0  0  0  0  0  0
   -2.5360    0.3179   -0.8328 C   0  0  0  0  0  0  0  0  0  0  0  0
   -3.9143    0.2064   -0.7226 O   0  0  0  0  0  0  0  0  0  0  0  0
   -4.5120   -0.2641    0.4408 C   0  0  0  0  0  0  0  0  0  0  0  0
   -3.7850   -0.6472    1.5505 C   0  0  0  0  0  0  0  0  0  0  0  0
   -4.4353   -1.1078    2.6807 C   0  0  0  0  0  0  0  0  0  0  0  0
   -5.8106   -1.2068    2.7584 C   0  0  0  0  0  0  0  0  0  0  0  0
   -6.4340   -1.6633    3.8815 F   0  0  0  0  0  0  0  0  0  0  0  0
   -6.5346   -0.8228    1.6467 C   0  0  0  0  0  0  0  0  0  0  0  0
   -5.8865   -0.3546    0.4963 C   0  0  0  0  0  0  0  0  0  0  0  0
   -6.5783    0.0255   -0.6008 F   0  0  0  0  0  0  0  0  0  0  0  0
   -1.7822   -0.8278   -0.6893 C   0  0  0  0  0  0  0  0  0  0  0  0
   -2.3776   -1.9170   -0.4659 O   0  0  0  0  0  0  0  0  0  0  0  0
   -0.4429   -0.7381   -0.7933 N   0  0  0  0  0  0  0  0  0  0  0  0
    0.3207   -1.9619   -0.6372 C   0  0  0  0  0  0  0  0  0  0  0  0
    0.1993    0.4350   -1.0339 C   0  0  0  0  0  0  0  0  0  0  0  0
    1.5377    0.5170   -1.1365 N   0  0  0  0  0  0  0  0  0  0  0  0
  1  2  1  0
  2  3  1  0
  3  4  1  1
  3  5  1  0
  5  6  1  0
  6  7  1  0
  7  8  2  0
  7  9  1  0
  9 10  1  0
 10 11  1  0
 10 12  1  0
 14 13  1  1
 14 15  1  0
 15 16  1  0
 16 17  1  0
 17 18  2  0
 18 19  1  0
 19 20  2  0
 14 21  1  0
 21 22  1  0
 22 23  2  0
 23 24  1  0
 24 25  2  0
 25 26  1  0
 26 27  2  0
 27 28  1  0
 28 29  1  0
 29 30  2  0
 30 31  1  0
 31 32  2  0
 32 33  1  0
 32 34  1  0
 34 35  2  0
 35 36  1  0
 27 37  1  0
 37 38  2  0
 37 39  1  0
 39 40  1  0
 39 41  1  0
 41 42  2  0
 20 16  1  0
 42 22  1  0
 41 25  1  0
 35 29  1  0
M  END

