
     RDKit          3D

 43 45  0  0  0  0  0  0  0  0999 V2000
   -4.6862   -0.5227    1.6395 C   0  0  0  0  0  0  0  0  0  0  0  0
   -3.9428   -0.2230    0.1710 C   0  0  1  0  0  0  0  0  0  0  0  0
   -4.0927    1.3158    0.3488 O   0  0  0  0  0  0  0  0  0  0  0  0
   -2.4229   -0.2108    0.8531 C   0  0  0  0  0  0  0  0  0  0  0  0
   -1.5168    0.0499   -0.2952 C   0  0  0  0  0  0  0  0  0  0  0  0
   -1.9571    0.2022   -1.4487 O   0  0  0  0  0  0  0  0  0  0  0  0
   -0.1029    0.1405   -0.1480 N   0  0  0  0  0  0  0  0  0  0  0  0
    0.7637    0.3998   -1.3076 C   0  0  0  0  0  0  0  0  0  0  0  0
    2.1797    0.4381   -0.8384 C   0  0  0  0  0  0  0  0  0  0  0  0
    2.5739   -0.8702   -0.2066 C   0  0  0  0  0  0  0  0  0  0  0  0
    3.9775   -0.8375    0.2605 C   0  0  0  0  0  0  0  0  0  0  0  0
    4.5787   -1.9389    0.8844 N   0  0  0  0  0  0  0  0  0  0  0  0
    4.6479    0.2214    0.0871 O   0  0  0  0  0  0  0  0  0  0  0  0
    3.6459   -1.3484   -1.5018 C   0  0  0  0  0  0  0  0  0  0  0  0
    4.2611    0.0604   -0.8676 C   0  0  2  0  0  0  0  0  0  0  0  0
    5.7867   -0.5839   -0.7214 C   0  0  0  0  0  0  0  0  0  0  0  0
    6.5484    0.4981   -0.1645 N   0  0  0  0  0  0  0  0  0  0  0  0
    7.1878    1.4081   -0.8552 N   0  0  0  0  0  0  0  0  0  0  0  0
    7.7755    2.2423    0.0030 C   0  0  0  0  0  0  0  0  0  0  0  0
    7.4815    1.8225    1.2382 N   0  0  0  0  0  0  0  0  0  0  0  0
    6.7254    0.7479    1.1157 N   0  0  0  0  0  0  0  0  0  0  0  0
    3.8706   -0.3442    0.6189 N   0  0  0  0  0  0  0  0  0  0  0  0
    2.4780   -0.5510    0.7964 C   0  0  0  0  0  0  0  0  0  0  0  0
    2.0797   -0.8959    2.0316 N   0  0  0  0  0  0  0  0  0  0  0  0
    0.8003   -1.1230    2.3486 C   0  0  0  0  0  0  0  0  0  0  0  0
   -0.1327   -0.9841    1.3174 C   0  0  0  0  0  0  0  0  0  0  0  0
   -1.4682   -1.2018    1.5679 C   0  0  0  0  0  0  0  0  0  0  0  0
   -2.3835   -1.0678    0.5656 C   0  0  0  0  0  0  0  0  0  0  0  0
   -3.7390   -1.2623    0.7101 O   0  0  0  0  0  0  0  0  0  0  0  0
   -4.6800   -0.2688    0.4633 C   0  0  0  0  0  0  0  0  0  0  0  0
   -4.2554    0.9613    0.0590 C   0  0  0  0  0  0  0  0  0  0  0  0
   -5.1169    2.0034   -0.2077 C   0  0  0  0  0  0  0  0  0  0  0  0
   -6.4748    1.7612   -0.0490 C   0  0  0  0  0  0  0  0  0  0  0  0
   -7.3658    2.7609   -0.3008 F   0  0  0  0  0  0  0  0  0  0  0  0
   -6.9183    0.5265    0.3578 C   0  0  0  0  0  0  0  0  0  0  0  0
   -6.0228   -0.5100    0.6207 C   0  0  0  0  0  0  0  0  0  0  0  0
   -6.4839   -1.7056    1.0166 F   0  0  0  0  0  0  0  0  0  0  0  0
   -1.9178   -0.7090   -0.6945 C   0  0  0  0  0  0  0  0  0  0  0  0
   -2.7390   -0.5716   -1.6650 O   0  0  0  0  0  0  0  0  0  0  0  0
   -0.6269   -0.4928   -0.9603 N   0  0  0  0  0  0  0  0  0  0  0  0
   -0.1523   -0.1183   -2.2812 C   0  0  0  0  0  0  0  0  0  0  0  0
    0.2649   -0.6312    0.0485 C   0  0  0  0  0  0  0  0  0  0  0  0
    1.5715   -0.4229   -0.1773 N   0  0  0  0  0  0  0  0  0  0  0  0
  2  1  1  1
  2  3  1  0
  2  4  1  0
  4  5  1  0
  5  6  2  0
  5  7  1  0
  7  8  1  0
  8  9  1  0
  9 10  1  0
 10 11  1  0
 11 12  1  0
 11 13  2  0
 15 14  1  6
 15 16  1  0
 16 17  1  0
 17 18  1  0
 18 19  2  0
 19 20  1  0
 20 21  2  0
 15 22  1  0
 22 23  1  0
 23 24  2  0
 24 25  1  0
 25 26  2  0
 26 27  1  0
 27 28  2  0
 28 29  1  0
 29 30  1  0
 30 31  2  0
 31 32  1  0
 32 33  2  0
 33 34  1  0
 33 35  1  0
 35 36  2  0
 36 37  1  0
 28 38  1  0
 38 39  2  0
 38 40  1  0
 40 41  1  0
 40 42  1  0
 42 43  2  0
 21 17  1  0
 43 23  1  0
 42 26  1  0
 36 30  1  0
M  END

