
     RDKit          3D

 41 43  0  0  0  0  0  0  0  0999 V2000
   -4.5964   -0.0063   -0.1889 C   0  0  0  0  0  0  0  0  0  0  0  0
   -3.5056    0.1004    0.8435 C   0  0  0  0  0  0  0  0  0  0  0  0
   -2.2036   -0.2097    0.1970 C   0  0  0  0  0  0  0  0  0  0  0  0
   -2.1304   -0.5092   -1.0396 O   0  0  0  0  0  0  0  0  0  0  0  0
   -0.9908   -0.1911    0.9070 N   0  0  0  0  0  0  0  0  0  0  0  0
    0.2911   -0.4848    0.3310 C   0  0  0  0  0  0  0  0  0  0  0  0
    0.6614    0.4420   -0.7895 C   0  0  0  0  0  0  0  0  0  0  0  0
    1.9909    0.1379   -1.3893 C   0  0  0  0  0  0  0  0  0  0  0  0
    3.1309    0.2071   -0.4816 C   0  0  0  0  0  0  0  0  0  0  0  0
    3.9954    1.2824   -0.3944 O   0  0  0  0  0  1  0  0  0  0  0  0
    3.3571   -0.7688    0.2810 O   0  0  0  0  0  0  0  0  0  0  0  0
    5.8389   -0.7503    1.9440 C   0  0  0  0  0  0  0  0  0  0  0  0
    4.3715   -1.2666    1.3826 C   0  0  2  0  0  0  0  0  0  0  0  0
    4.7183   -1.0245   -0.2062 C   0  0  0  0  0  0  0  0  0  0  0  0
    5.0237    0.3300   -0.4288 N   0  0  0  0  0  0  0  0  0  0  0  0
    4.2953    1.3871   -0.7476 N   0  0  0  0  0  0  0  0  0  0  0  0
    5.0630    2.4868   -0.8502 C   0  0  0  0  0  0  0  0  0  0  0  0
    6.3261    2.0716   -0.5783 N   0  0  0  0  0  0  0  0  0  0  0  0
    6.2792    0.7964   -0.3326 N   0  0  0  0  0  0  0  0  0  0  0  0
    3.6856    0.1339    1.5757 N   0  0  0  0  0  0  0  0  0  0  0  0
    2.3138    0.0759    1.1686 C   0  0  0  0  0  0  0  0  0  0  0  0
    1.5657    1.2163    1.2718 N   0  0  0  0  0  0  0  0  0  0  0  0
    0.2843    1.1825    0.8972 C   0  0  0  0  0  0  0  0  0  0  0  0
   -0.3478    0.0706    0.4085 C   0  0  0  0  0  0  0  0  0  0  0  0
   -1.6758    0.0626    0.0277 C   0  0  0  0  0  0  0  0  0  0  0  0
   -2.1876   -1.1260   -0.4480 C   0  0  0  0  0  0  0  0  0  0  0  0
   -3.5055   -1.2575   -0.8601 O   0  0  0  0  0  0  0  0  0  0  0  0
   -4.3161   -0.1428   -0.7818 C   0  0  0  0  0  0  0  0  0  0  0  0
   -4.8932    0.3462   -1.9353 C   0  0  0  0  0  0  0  0  0  0  0  0
   -5.6956    1.4520   -1.8487 C   0  0  0  0  0  0  0  0  0  0  0  0
   -5.9538    2.0985   -0.6670 C   0  0  0  0  0  0  0  0  0  0  0  0
   -6.7622    3.2005   -0.6277 F   0  0  0  0  0  0  0  0  0  0  0  0
   -5.3625    1.5862    0.4701 C   0  0  0  0  0  0  0  0  0  0  0  0
   -4.5437    0.4723    0.4390 C   0  0  0  0  0  0  0  0  0  0  0  0
   -3.9615   -0.0304    1.5652 F   0  0  0  0  0  0  0  0  0  0  0  0
   -1.4013   -2.2779   -0.5435 C   0  0  0  0  0  0  0  0  0  0  0  0
   -1.8816   -3.3592   -0.9804 O   0  0  0  0  0  0  0  0  0  0  0  0
   -0.1201   -2.2194   -0.1620 N   0  0  0  0  0  0  0  0  0  0  0  0
    0.7067   -3.4168   -0.2586 C   0  0  0  0  0  0  0  0  0  0  0  0
    0.4252   -1.0735    0.3113 C   0  0  0  0  0  0  0  0  0  0  0  0
    1.7108   -1.0244    0.6914 N   0  0  0  0  0  0  0  0  0  0  0  0
  1  2  1  0
  2  3  1  0
  3  4  2  0
  3  5  1  0
  5  6  1  0
  6  7  1  0
  7  8  1  0
  8  9  1  0
  9 10  1  0
  9 11  2  0
 13 12  1  1
 13 14  1  0
 14 15  1  0
 15 16  1  0
 16 17  2  0
 17 18  1  0
 18 19  2  0
 13 20  1  0
 20 21  1  0
 21 22  2  0
 22 23  1  0
 23 24  2  0
 24 25  1  0
 25 26  2  0
 26 27  1  0
 27 28  1  0
 28 29  2  0
 29 30  1  0
 30 31  2  0
 31 32  1  0
 31 33  1  0
 33 34  2  0
 34 35  1  0
 26 36  1  0
 36 37  2  0
 36 38  1  0
 38 39  1  0
 38 40  1  0
 40 41  2  0
 19 15  1  0
 41 21  1  0
 40 24  1  0
 34 28  1  0
M  RAD  1  10   2
M  END

