
     RDKit          3D

 44 47  0  0  0  0  0  0  0  0999 V2000
   -3.5593   -3.1523   -0.1125 C   0  0  0  0  0  0  0  0  0  0  0  0
   -3.0658   -1.9800   -1.1770 C   0  0  1  0  0  0  0  0  0  0  0  0
   -4.2072   -1.0518   -0.7640 O   0  0  0  0  0  0  0  0  0  0  0  0
   -2.0347   -1.3221   -0.0946 C   0  0  0  0  0  0  0  0  0  0  0  0
   -1.3899   -0.1774   -0.7712 C   0  0  0  0  0  0  0  0  0  0  0  0
   -1.7049    0.0834   -1.9543 O   0  0  0  0  0  0  0  0  0  0  0  0
   -0.4414    0.6223   -0.1347 N   0  0  0  0  0  0  0  0  0  0  0  0
    0.2353    1.7580   -0.7236 C   0  0  0  0  0  0  0  0  0  0  0  0
    1.1671    2.3167    0.3204 C   0  0  0  0  0  0  0  0  0  0  0  0
    2.1775    1.3219    0.7631 C   0  0  0  0  0  0  0  0  0  0  0  0
    2.1189    0.4038    1.7883 C   0  0  0  0  0  0  0  0  0  0  0  0
    3.2639   -0.2933    1.8268 N   0  0  0  0  0  0  0  0  0  0  0  0
    4.0556    0.1672    0.8385 C   0  0  0  0  0  0  0  0  0  0  0  0
    3.3848    1.1524    0.1948 N   0  0  0  0  0  0  0  0  0  0  0  0
   -4.8081   -1.7701   -0.7743 C   0  0  0  0  0  0  0  0  0  0  0  0
   -4.8438   -1.9184    0.8749 C   0  0  2  0  0  0  0  0  0  0  0  0
   -4.4241   -0.3550    1.1854 C   0  0  0  0  0  0  0  0  0  0  0  0
   -5.3982    0.4886    0.6243 N   0  0  0  0  0  0  0  0  0  0  0  0
   -5.3078    0.9461   -0.6140 N   0  0  0  0  0  0  0  0  0  0  0  0
   -6.3459    1.7234   -0.9190 C   0  0  0  0  0  0  0  0  0  0  0  0
   -7.1202    1.7487    0.1889 N   0  0  0  0  0  0  0  0  0  0  0  0
   -6.5191    0.9934    1.1006 N   0  0  0  0  0  0  0  0  0  0  0  0
   -3.4005   -2.5154    0.9428 N   0  0  0  0  0  0  0  0  0  0  0  0
   -2.3344   -1.8077    0.4278 C   0  0  0  0  0  0  0  0  0  0  0  0
   -2.5781   -0.6079   -0.1278 N   0  0  0  0  0  0  0  0  0  0  0  0
   -1.6070    0.1673   -0.6614 C   0  0  0  0  0  0  0  0  0  0  0  0
   -0.3069   -0.2657   -0.6484 C   0  0  0  0  0  0  0  0  0  0  0  0
    0.7464    0.4506   -1.1656 C   0  0  0  0  0  0  0  0  0  0  0  0
    2.0434   -0.0508   -1.1184 C   0  0  0  0  0  0  0  0  0  0  0  0
    3.0768    0.7162   -1.6575 O   0  0  0  0  0  0  0  0  0  0  0  0
    4.1432    1.1455   -0.8859 C   0  0  0  0  0  0  0  0  0  0  0  0
    5.4180    0.7493   -1.2406 C   0  0  0  0  0  0  0  0  0  0  0  0
    6.5004    1.1598   -0.4926 C   0  0  0  0  0  0  0  0  0  0  0  0
    6.3892    1.9663    0.6223 C   0  0  0  0  0  0  0  0  0  0  0  0
    7.4827    2.3494    1.3334 F   0  0  0  0  0  0  0  0  0  0  0  0
    5.1115    2.3569    0.9686 C   0  0  0  0  0  0  0  0  0  0  0  0
    4.0128    1.9500    0.2234 C   0  0  0  0  0  0  0  0  0  0  0  0
    2.7466    2.3353    0.5640 F   0  0  0  0  0  0  0  0  0  0  0  0
    2.2647   -1.2830   -0.5433 C   0  0  0  0  0  0  0  0  0  0  0  0
    3.4452   -1.7159   -0.5118 O   0  0  0  0  0  0  0  0  0  0  0  0
    1.2303   -1.9787   -0.0392 N   0  0  0  0  0  0  0  0  0  0  0  0
    1.4864   -3.2739    0.5617 C   0  0  0  0  0  0  0  0  0  0  0  0
   -0.0453   -1.4930   -0.0820 C   0  0  0  0  0  0  0  0  0  0  0  0
   -1.0582   -2.2112    0.4299 N   0  0  0  0  0  0  0  0  0  0  0  0
  2  1  1  1
  2  3  1  0
  2  4  1  0
  4  5  1  0
  5  6  2  0
  5  7  1  0
  7  8  1  0
  8  9  1  0
  9 10  1  0
 10 11  2  0
 11 12  1  0
 12 13  1  0
 13 14  2  0
 16 15  1  6
 16 17  1  0
 17 18  1  0
 18 19  1  0
 19 20  2  0
 20 21  1  0
 21 22  2  0
 16 23  1  0
 23 24  1  0
 24 25  2  0
 25 26  1  0
 26 27  2  0
 27 28  1  0
 28 29  2  0
 29 30  1  0
 30 31  1  0
 31 32  2  0
 32 33  1  0
 33 34  2  0
 34 35  1  0
 34 36  1  0
 36 37  2  0
 37 38  1  0
 29 39  1  0
 39 40  2  0
 39 41  1  0
 41 42  1  0
 41 43  1  0
 43 44  2  0
 14 10  1  0
 22 18  1  0
 44 24  1  0
 43 27  1  0
 37 31  1  0
M  END

