
     RDKit          3D

 44 46  0  0  0  0  0  0  0  0999 V2000
   -5.5668   -1.7451   -3.1962 C   0  0  0  0  0  0  0  0  0  0  0  0
   -4.9109   -1.5079   -1.6716 C   0  0  2  0  0  0  0  0  0  0  0  0
   -5.7991   -0.1460   -1.4840 C   0  0  0  0  0  0  0  0  0  0  0  0
   -5.4995    0.4042   -0.1957 N   0  0  0  0  0  0  0  0  0  0  0  0
   -4.5668    1.3017    0.0642 N   0  0  0  0  0  0  0  0  0  0  0  0
   -4.5517    1.5994    1.3712 C   0  0  0  0  0  0  0  0  0  0  0  0
   -5.5199    0.8456    1.9197 N   0  0  0  0  0  0  0  0  0  0  0  0
   -6.0759    0.1370    0.9659 N   0  0  0  0  0  0  0  0  0  0  0  0
   -3.6630   -0.7678   -2.2501 N   0  0  0  0  0  0  0  0  0  0  0  0
   -2.5784   -0.6339   -1.3167 C   0  0  0  0  0  0  0  0  0  0  0  0
   -2.6210   -1.1153   -0.0699 N   0  0  0  0  0  0  0  0  0  0  0  0
   -1.5799   -0.9600    0.7537 C   0  0  0  0  0  0  0  0  0  0  0  0
   -0.4720   -0.2978    0.2907 C   0  0  0  0  0  0  0  0  0  0  0  0
    0.5883   -0.1487    1.1542 C   0  0  0  0  0  0  0  0  0  0  0  0
    1.7042    0.5173    0.6904 C   0  0  0  0  0  0  0  0  0  0  0  0
    2.7577    0.6516    1.5857 O   0  0  0  0  0  0  0  0  0  0  0  0
    4.0022    0.1106    1.2799 C   0  0  0  0  0  0  0  0  0  0  0  0
    4.2603   -0.5694    0.1100 C   0  0  0  0  0  0  0  0  0  0  0  0
    5.5079   -1.0944   -0.1628 C   0  0  0  0  0  0  0  0  0  0  0  0
    6.5632   -0.9691    0.7161 C   0  0  0  0  0  0  0  0  0  0  0  0
    7.7933   -1.4795    0.4613 F   0  0  0  0  0  0  0  0  0  0  0  0
    6.2955   -0.2875    1.8834 C   0  0  0  0  0  0  0  0  0  0  0  0
    5.0521    0.2394    2.1625 C   0  0  0  0  0  0  0  0  0  0  0  0
    4.8290    0.9002    3.3160 F   0  0  0  0  0  0  0  0  0  0  0  0
    1.7419    1.0089   -0.5896 C   0  0  0  0  0  0  0  0  0  0  0  0
    2.7946    1.6075   -0.9471 O   0  0  0  0  0  0  0  0  0  0  0  0
    0.6863    0.8346   -1.3795 N   0  0  0  0  0  0  0  0  0  0  0  0
    0.7471    1.3610   -2.7259 C   0  0  0  0  0  0  0  0  0  0  0  0
   -0.4208    0.1980   -0.9846 C   0  0  0  0  0  0  0  0  0  0  0  0
   -1.4980    0.0055   -1.7512 N   0  0  0  0  0  0  0  0  0  0  0  0
   -1.8180    1.8707    3.3944 O   0  0  0  0  0  1  0  0  0  0  0  0
   -2.0847    0.9520    2.3972 C   0  0  0  0  0  0  0  0  0  0  0  0
   -2.8159   -0.0288    2.6673 O   0  0  0  0  0  0  0  0  0  0  0  0
   -1.4886    1.1774    1.0562 C   0  0  0  0  0  0  0  0  0  0  0  0
   -1.9459   -0.0043    0.1858 C   0  0  0  0  0  0  0  0  0  0  0  0
   -1.4077   -1.2481    0.8727 C   0  0  0  0  0  0  0  0  0  0  0  0
    0.0317   -1.1245    0.9179 N   0  0  0  0  0  0  0  0  0  0  0  0
    0.7517   -1.0127   -0.2791 C   0  0  0  0  0  0  0  0  0  0  0  0
    0.1028   -1.0246   -1.3709 O   0  0  0  0  0  0  0  0  0  0  0  0
    2.2189   -0.8810   -0.3733 C   0  0  0  0  0  0  0  0  0  0  0  0
    2.6939   -0.7920   -1.7910 C   0  0  0  0  0  0  0  0  0  0  0  0
    2.1035    0.3839   -2.4738 C   0  0  0  0  0  0  0  0  0  0  0  0
    1.1376    0.2133   -3.4476 O   0  0  0  0  0  1  0  0  0  0  0  0
    2.5206    1.5187   -2.1264 O   0  0  0  0  0  0  0  0  0  0  0  0
  2  1  1  6
  2  3  1  0
  3  4  1  0
  4  5  1  0
  5  6  2  0
  6  7  1  0
  7  8  2  0
  2  9  1  0
  9 10  1  0
 10 11  2  0
 11 12  1  0
 12 13  2  0
 13 14  1  0
 14 15  2  0
 15 16  1  0
 16 17  1  0
 17 18  2  0
 18 19  1  0
 19 20  2  0
 20 21  1  0
 20 22  1  0
 22 23  2  0
 23 24  1  0
 15 25  1  0
 25 26  2  0
 25 27  1  0
 27 28  1  0
 27 29  1  0
 29 30  2  0
 31 32  1  0
 32 33  2  0
 32 34  1  0
 34 35  1  0
 35 36  1  0
 36 37  1  0
 37 38  1  0
 38 39  2  0
 38 40  1  0
 40 41  1  0
 41 42  1  0
 42 43  1  0
 42 44  2  0
  8  4  1  0
 30 10  1  0
 29 13  1  0
 23 17  1  0
M  RAD  2  31   2  43   2
M  END

