
     RDKit          3D

 39 41  0  0  0  0  0  0  0  0999 V2000
    3.4822   -0.0720   -0.2073 C   0  0  0  0  0  0  0  0  0  0  0  0
    2.4212    0.2922    0.7900 C   0  0  0  0  0  0  0  0  0  0  0  0
    1.0902   -0.2208    0.4178 C   0  0  0  0  0  0  0  0  0  0  0  0
    0.9737   -0.8762   -0.6362 O   0  0  0  0  0  0  0  0  0  0  0  0
   -0.0130    0.0403    1.2579 N   0  0  0  0  0  0  0  0  0  0  0  0
   -1.3255   -0.4577    0.9042 C   0  0  0  0  0  0  0  0  0  0  0  0
   -1.7334    0.1110   -0.4169 C   0  0  0  0  0  0  0  0  0  0  0  0
   -1.7968    1.6235   -0.4039 C   0  0  0  0  0  0  0  0  0  0  0  0
   -3.0986   -0.4403   -0.7821 C   0  0  0  0  0  0  0  0  0  0  0  0
   -4.4995   -2.1602    0.5622 C   0  0  0  0  0  0  0  0  0  0  0  0
   -4.6064   -0.8417    1.5544 C   0  0  2  0  0  0  0  0  0  0  0  0
   -6.0260   -0.3660    0.8992 C   0  0  0  0  0  0  0  0  0  0  0  0
   -6.4108    0.8412    1.5971 N   0  0  0  0  0  0  0  0  0  0  0  0
   -7.1166    1.0337    2.6627 N   0  0  0  0  0  0  0  0  0  0  0  0
   -7.1822    2.3407    2.8987 C   0  0  0  0  0  0  0  0  0  0  0  0
   -6.4918    2.9602    1.9423 N   0  0  0  0  0  0  0  0  0  0  0  0
   -6.0226    2.0236    1.1481 N   0  0  0  0  0  0  0  0  0  0  0  0
   -3.7147    0.0288    0.6107 N   0  0  0  0  0  0  0  0  0  0  0  0
   -2.4044   -0.4771    0.3945 C   0  0  0  0  0  0  0  0  0  0  0  0
   -1.9426   -1.6050    0.9410 N   0  0  0  0  0  0  0  0  0  0  0  0
   -0.6979   -2.0712    0.7261 C   0  0  0  0  0  0  0  0  0  0  0  0
    0.1699   -1.3679   -0.0980 C   0  0  0  0  0  0  0  0  0  0  0  0
    1.4596   -1.8151   -0.3441 C   0  0  0  0  0  0  0  0  0  0  0  0
    2.2575   -1.0448   -1.1830 C   0  0  0  0  0  0  0  0  0  0  0  0
    3.5268   -1.4842   -1.4257 O   0  0  0  0  0  0  0  0  0  0  0  0
    4.6672   -0.7844   -1.1256 C   0  0  0  0  0  0  0  0  0  0  0  0
    5.5467   -0.4353   -2.1279 C   0  0  0  0  0  0  0  0  0  0  0  0
    6.6921    0.2633   -1.8541 C   0  0  0  0  0  0  0  0  0  0  0  0
    6.9567    0.6145   -0.5616 C   0  0  0  0  0  0  0  0  0  0  0  0
    8.0649    1.3018   -0.2225 F   0  0  0  0  0  0  0  0  0  0  0  0
    6.0726    0.2600    0.4228 C   0  0  0  0  0  0  0  0  0  0  0  0
    4.9105   -0.4405    0.1987 C   0  0  0  0  0  0  0  0  0  0  0  0
    4.0313   -0.7956    1.1610 F   0  0  0  0  0  0  0  0  0  0  0  0
    1.7347    0.1035   -1.7173 C   0  0  0  0  0  0  0  0  0  0  0  0
    2.4712    0.8065   -2.4863 O   0  0  0  0  0  0  0  0  0  0  0  0
    0.5001    0.5202   -1.4742 N   0  0  0  0  0  0  0  0  0  0  0  0
   -0.0678    1.7316   -2.0312 C   0  0  0  0  0  0  0  0  0  0  0  0
   -0.3057   -0.2026   -0.6632 C   0  0  0  0  0  0  0  0  0  0  0  0
   -1.5728    0.2113   -0.4047 N   0  0  0  0  0  0  0  0  0  0  0  0
  1  2  1  0
  2  3  1  0
  3  4  2  0
  3  5  1  0
  5  6  1  0
  6  7  1  0
  7  8  1  0
  7  9  1  0
 11 10  1  6
 11 12  1  0
 12 13  1  0
 13 14  1  0
 14 15  2  0
 15 16  1  0
 16 17  2  0
 11 18  1  0
 18 19  1  0
 19 20  2  0
 20 21  1  0
 21 22  2  0
 22 23  1  0
 23 24  2  0
 24 25  1  0
 25 26  1  0
 26 27  2  0
 27 28  1  0
 28 29  2  0
 29 30  1  0
 29 31  1  0
 31 32  2  0
 32 33  1  0
 24 34  1  0
 34 35  2  0
 34 36  1  0
 36 37  1  0
 36 38  1  0
 38 39  2  0
 17 13  1  0
 39 19  1  0
 38 22  1  0
 32 26  1  0
M  END

