
     RDKit          3D

 39 41  0  0  0  0  0  0  0  0999 V2000
   -3.6325    1.2069   -0.2977 C   0  0  0  0  0  0  0  0  0  0  0  0
   -2.4322    0.7699   -1.0059 N   0  0  0  0  0  0  0  0  0  0  0  0
   -1.3925    0.1083   -0.2951 C   0  0  0  0  0  0  0  0  0  0  0  0
   -1.5621   -0.0722    0.9317 O   0  0  0  0  0  0  0  0  0  0  0  0
   -0.1432   -0.3518   -1.0030 C   0  0  0  0  0  0  0  0  0  0  0  0
    0.7245   -1.0145    0.0217 C   0  0  0  0  0  0  0  0  0  0  0  0
    2.0187   -1.5407   -0.4955 C   0  0  0  0  0  0  0  0  0  0  0  0
    2.9639   -0.1426   -1.1846 S   0  0  0  0  0  0  0  0  0  0  0  0
    3.4553    1.0367    0.1036 C   0  0  0  0  0  0  0  0  0  0  0  0
   -5.9185    1.1519    0.9189 C   0  0  0  0  0  0  0  0  0  0  0  0
   -4.3731    1.0732    0.2864 C   0  0  2  0  0  0  0  0  0  0  0  0
   -4.3635   -0.5969    0.3479 C   0  0  0  0  0  0  0  0  0  0  0  0
   -5.5046   -0.8585   -0.5247 N   0  0  0  0  0  0  0  0  0  0  0  0
   -5.4539   -1.0236   -1.8276 N   0  0  0  0  0  0  0  0  0  0  0  0
   -6.7137   -1.2465   -2.2904 C   0  0  0  0  0  0  0  0  0  0  0  0
   -7.5130   -1.2072   -1.2108 N   0  0  0  0  0  0  0  0  0  0  0  0
   -6.7756   -0.9730   -0.1527 N   0  0  0  0  0  0  0  0  0  0  0  0
   -3.6988    1.2303    1.7015 N   0  0  0  0  0  0  0  0  0  0  0  0
   -2.2729    1.2241    1.7050 C   0  0  0  0  0  0  0  0  0  0  0  0
   -1.5817    1.3502    2.8471 N   0  0  0  0  0  0  0  0  0  0  0  0
   -0.2249    1.3449    2.8558 C   0  0  0  0  0  0  0  0  0  0  0  0
    0.5032    1.2099    1.6926 C   0  0  0  0  0  0  0  0  0  0  0  0
    1.8856    1.1988    1.6508 C   0  0  0  0  0  0  0  0  0  0  0  0
    2.5775    1.0613    0.4638 C   0  0  0  0  0  0  0  0  0  0  0  0
    3.9568    1.0429    0.3572 O   0  0  0  0  0  0  0  0  0  0  0  0
    4.6675   -0.0319   -0.1640 C   0  0  0  0  0  0  0  0  0  0  0  0
    5.4873    0.0450   -1.2691 C   0  0  0  0  0  0  0  0  0  0  0  0
    6.1818   -1.0418   -1.7644 C   0  0  0  0  0  0  0  0  0  0  0  0
    6.0785   -2.2751   -1.1569 C   0  0  0  0  0  0  0  0  0  0  0  0
    6.7496   -3.3563   -1.6236 F   0  0  0  0  0  0  0  0  0  0  0  0
    5.2609   -2.3653   -0.0496 C   0  0  0  0  0  0  0  0  0  0  0  0
    4.5622   -1.2639    0.4456 C   0  0  0  0  0  0  0  0  0  0  0  0
    3.7570   -1.3681    1.5420 F   0  0  0  0  0  0  0  0  0  0  0  0
    1.8303    0.9348   -0.6847 C   0  0  0  0  0  0  0  0  0  0  0  0
    2.4502    0.8088   -1.7726 O   0  0  0  0  0  0  0  0  0  0  0  0
    0.4768    0.9457   -0.6435 N   0  0  0  0  0  0  0  0  0  0  0  0
   -0.2773    0.8117   -1.8582 C   0  0  0  0  0  0  0  0  0  0  0  0
   -0.2069    1.0810    0.5242 C   0  0  0  0  0  0  0  0  0  0  0  0
   -1.5468    1.0938    0.5828 N   0  0  0  0  0  0  0  0  0  0  0  0
  1  2  1  0
  2  3  1  0
  3  4  2  0
  3  5  1  0
  5  6  1  0
  6  7  1  0
  7  8  1  0
  8  9  1  0
 11 10  1  1
 11 12  1  0
 12 13  1  0
 13 14  1  0
 14 15  2  0
 15 16  1  0
 16 17  2  0
 11 18  1  0
 18 19  1  0
 19 20  2  0
 20 21  1  0
 21 22  2  0
 22 23  1  0
 23 24  2  0
 24 25  1  0
 25 26  1  0
 26 27  2  0
 27 28  1  0
 28 29  2  0
 29 30  1  0
 29 31  1  0
 31 32  2  0
 32 33  1  0
 24 34  1  0
 34 35  2  0
 34 36  1  0
 36 37  1  0
 36 38  1  0
 38 39  2  0
 17 13  1  0
 39 19  1  0
 38 22  1  0
 32 26  1  0
M  END

