
     RDKit          3D

 42 44  0  0  0  0  0  0  0  0999 V2000
    3.4354   -1.3040    2.3687 C   0  0  0  0  0  0  0  0  0  0  0  0
    2.8779   -1.2234    0.9511 C   0  0  0  0  0  0  0  0  0  0  0  0
    3.8553   -0.3854    0.1428 C   0  0  0  0  0  0  0  0  0  0  0  0
    1.5589   -0.4885    1.0528 C   0  0  0  0  0  0  0  0  0  0  0  0
    0.9097   -0.3442   -0.2777 C   0  0  0  0  0  0  0  0  0  0  0  0
    1.4175   -0.7880   -1.3376 O   0  0  0  0  0  0  0  0  0  0  0  0
   -0.3369    0.3274   -0.3285 N   0  0  0  0  0  0  0  0  0  0  0  0
   -1.0705    0.5319   -1.5686 C   0  0  0  0  0  0  0  0  0  0  0  0
   -2.3318    1.2794   -1.1885 C   0  0  0  0  0  0  0  0  0  0  0  0
   -3.1601    0.5253   -0.2347 C   0  0  0  0  0  0  0  0  0  0  0  0
   -4.3905    1.0140    0.2720 N   0  0  0  0  0  0  0  0  0  0  0  0
   -2.7650   -0.5964    0.1484 O   0  0  0  0  0  0  0  0  0  0  0  0
   -4.6026   -0.1024    0.6446 C   0  0  0  0  0  0  0  0  0  0  0  0
   -4.5718    1.4298    0.0082 C   0  0  2  0  0  0  0  0  0  0  0  0
   -5.8485    1.1173   -1.0105 C   0  0  0  0  0  0  0  0  0  0  0  0
   -6.8678    0.7831   -0.0392 N   0  0  0  0  0  0  0  0  0  0  0  0
   -7.1570   -0.4042    0.4582 N   0  0  0  0  0  0  0  0  0  0  0  0
   -8.1615   -0.3044    1.3282 C   0  0  0  0  0  0  0  0  0  0  0  0
   -8.4974    1.0040    1.3602 N   0  0  0  0  0  0  0  0  0  0  0  0
   -7.6856    1.6394    0.5116 N   0  0  0  0  0  0  0  0  0  0  0  0
   -3.4971    1.0591   -1.0850 N   0  0  0  0  0  0  0  0  0  0  0  0
   -2.2925    0.6234   -0.4428 C   0  0  0  0  0  0  0  0  0  0  0  0
   -2.1425    0.5557    0.8873 N   0  0  0  0  0  0  0  0  0  0  0  0
   -0.9875    0.1387    1.4352 C   0  0  0  0  0  0  0  0  0  0  0  0
    0.0991   -0.2399    0.6816 C   0  0  0  0  0  0  0  0  0  0  0  0
    1.3047   -0.6748    1.2184 C   0  0  0  0  0  0  0  0  0  0  0  0
    2.3360   -1.0329    0.3954 C   0  0  0  0  0  0  0  0  0  0  0  0
    3.5231   -1.4611    0.9185 O   0  0  0  0  0  0  0  0  0  0  0  0
    4.6774   -0.7435    0.6178 C   0  0  0  0  0  0  0  0  0  0  0  0
    4.6608    0.3785   -0.1861 C   0  0  0  0  0  0  0  0  0  0  0  0
    5.8053    1.0909   -0.4849 C   0  0  0  0  0  0  0  0  0  0  0  0
    7.0282    0.7003    0.0179 C   0  0  0  0  0  0  0  0  0  0  0  0
    8.1760    1.3903   -0.2643 F   0  0  0  0  0  0  0  0  0  0  0  0
    7.0375   -0.4215    0.8203 C   0  0  0  0  0  0  0  0  0  0  0  0
    5.8983   -1.1385    1.1233 C   0  0  0  0  0  0  0  0  0  0  0  0
    5.9835   -2.2425    1.9269 F   0  0  0  0  0  0  0  0  0  0  0  0
    2.1639   -0.9571   -0.9600 C   0  0  0  0  0  0  0  0  0  0  0  0
    3.0749   -1.2725   -1.7834 O   0  0  0  0  0  0  0  0  0  0  0  0
    0.9874   -0.5329   -1.4667 N   0  0  0  0  0  0  0  0  0  0  0  0
    0.8345   -0.4631   -2.9007 C   0  0  0  0  0  0  0  0  0  0  0  0
   -0.0577   -0.1694   -0.6866 C   0  0  0  0  0  0  0  0  0  0  0  0
   -1.2212    0.2503   -1.2006 N   0  0  0  0  0  0  0  0  0  0  0  0
  1  2  1  0
  2  3  1  0
  2  4  1  0
  4  5  1  0
  5  6  2  0
  5  7  1  0
  7  8  1  0
  8  9  1  0
  9 10  1  0
 10 11  1  0
 10 12  2  0
 14 13  1  1
 14 15  1  0
 15 16  1  0
 16 17  1  0
 17 18  2  0
 18 19  1  0
 19 20  2  0
 14 21  1  0
 21 22  1  0
 22 23  2  0
 23 24  1  0
 24 25  2  0
 25 26  1  0
 26 27  2  0
 27 28  1  0
 28 29  1  0
 29 30  2  0
 30 31  1  0
 31 32  2  0
 32 33  1  0
 32 34  1  0
 34 35  2  0
 35 36  1  0
 27 37  1  0
 37 38  2  0
 37 39  1  0
 39 40  1  0
 39 41  1  0
 41 42  2  0
 20 16  1  0
 42 22  1  0
 41 25  1  0
 35 29  1  0
M  END

