
     RDKit          3D

 48 51  0  0  0  0  0  0  0  0999 V2000
   -6.2953   -2.8675    0.5764 C   0  0  0  0  0  0  0  0  0  0  0  0
   -5.2850   -1.5642    0.9349 C   0  0  2  0  0  0  0  0  0  0  0  0
   -5.7842   -0.7920   -0.4297 C   0  0  0  0  0  0  0  0  0  0  0  0
   -5.1011    0.4575   -0.4904 N   0  0  0  0  0  0  0  0  0  0  0  0
   -5.5733    1.5544    0.0798 N   0  0  0  0  0  0  0  0  0  0  0  0
   -4.7536    2.5913   -0.1471 C   0  0  0  0  0  0  0  0  0  0  0  0
   -3.7345    2.1177   -0.8865 N   0  0  0  0  0  0  0  0  0  0  0  0
   -3.9819    0.8317   -1.0704 N   0  0  0  0  0  0  0  0  0  0  0  0
   -4.0573   -2.2425    0.2499 N   0  0  0  0  0  0  0  0  0  0  0  0
   -2.8061   -1.6700    0.5452 C   0  0  0  0  0  0  0  0  0  0  0  0
   -2.7601   -0.6284    1.3847 N   0  0  0  0  0  0  0  0  0  0  0  0
   -1.6329    0.0140    1.7534 C   0  0  0  0  0  0  0  0  0  0  0  0
   -0.4630   -0.4690    1.2027 C   0  0  0  0  0  0  0  0  0  0  0  0
    0.7378    0.0779    1.4834 C   0  0  0  0  0  0  0  0  0  0  0  0
    1.9631   -0.4056    0.9246 C   0  0  0  0  0  0  0  0  0  0  0  0
    3.0563    0.2367    1.2996 O   0  0  0  0  0  0  0  0  0  0  0  0
    4.0748    0.9840    0.8829 C   0  0  0  0  0  0  0  0  0  0  0  0
    4.0965    2.2882    1.4239 C   0  0  0  0  0  0  0  0  0  0  0  0
    5.0328    3.2087    1.1415 C   0  0  0  0  0  0  0  0  0  0  0  0
    6.0482    2.9085    0.2812 C   0  0  0  0  0  0  0  0  0  0  0  0
    7.0103    3.8284   -0.0219 F   0  0  0  0  0  0  0  0  0  0  0  0
    6.0866    1.6558   -0.2803 C   0  0  0  0  0  0  0  0  0  0  0  0
    5.1042    0.6985    0.0201 C   0  0  0  0  0  0  0  0  0  0  0  0
    5.2247   -0.5066   -0.5513 F   0  0  0  0  0  0  0  0  0  0  0  0
    1.8536   -1.4668    0.0791 C   0  0  0  0  0  0  0  0  0  0  0  0
    2.8552   -1.9965   -0.4826 O   0  0  0  0  0  0  0  0  0  0  0  0
    0.6454   -2.0011   -0.1910 N   0  0  0  0  0  0  0  0  0  0  0  0
    0.5919   -3.1471   -1.1138 C   0  0  0  0  0  0  0  0  0  0  0  0
   -0.4983   -1.5425    0.3359 C   0  0  0  0  0  0  0  0  0  0  0  0
   -1.6547   -2.1536   -0.0035 N   0  0  0  0  0  0  0  0  0  0  0  0
   -7.4347   -0.2080    2.9533 N   0  0  0  0  0  4  0  0  0  0  0  0
   -7.0836   -0.0704    1.5689 C   0  0  0  0  0  0  0  0  0  0  0  0
   -5.6723   -0.4850    1.2614 C   0  0  0  0  0  0  0  0  0  0  0  0
   -5.4494   -0.2861   -0.2240 C   0  0  0  0  0  0  0  0  0  0  0  0
   -4.0737   -0.6647   -0.6620 C   0  0  0  0  0  0  0  0  0  0  0  0
   -2.9977    0.1481    0.0365 C   0  0  0  0  0  0  0  0  0  0  0  0
   -1.6483   -0.2573   -0.4251 C   0  0  0  0  0  0  0  0  0  0  0  0
   -1.4474   -1.1555   -1.2804 O   0  0  0  0  0  0  0  0  0  0  0  0
   -0.5325    0.4231    0.1468 N   0  0  0  0  0  0  0  0  0  0  0  0
    0.7933    0.0408   -0.2916 C   0  0  0  0  0  0  0  0  0  0  0  0
    1.7849    0.9087    0.4638 C   0  0  0  0  0  0  0  0  0  0  0  0
    3.1797    0.5755    0.0673 C   0  0  0  0  0  0  0  0  0  0  0  0
    3.7232    1.2685   -0.9923 C   0  0  0  0  0  0  0  0  0  0  0  0
    5.0034    1.0156   -1.4144 C   0  0  0  0  0  0  0  0  0  0  0  0
    5.7248    0.0450   -0.7412 C   0  0  0  0  0  0  0  0  0  0  0  0
    7.0220   -0.2547   -1.1213 O   0  0  0  0  0  0  0  0  0  0  0  0
    5.1893   -0.6553    0.3221 C   0  0  0  0  0  0  0  0  0  0  0  0
    3.9191   -0.3883    0.7232 C   0  0  0  0  0  0  0  0  0  0  0  0
  2  1  1  6
  2  3  1  0
  3  4  1  0
  4  5  1  0
  5  6  2  0
  6  7  1  0
  7  8  2  0
  2  9  1  0
  9 10  1  0
 10 11  2  0
 11 12  1  0
 12 13  2  0
 13 14  1  0
 14 15  2  0
 15 16  1  0
 16 17  1  0
 17 18  2  0
 18 19  1  0
 19 20  2  0
 20 21  1  0
 20 22  1  0
 22 23  2  0
 23 24  1  0
 15 25  1  0
 25 26  2  0
 25 27  1  0
 27 28  1  0
 27 29  1  0
 29 30  2  0
 31 32  1  0
 32 33  1  0
 33 34  1  0
 34 35  1  0
 35 36  1  0
 36 37  1  0
 37 38  2  0
 37 39  1  0
 39 40  1  0
 40 41  1  0
 41 42  1  0
 42 43  2  0
 43 44  1  0
 44 45  2  0
 45 46  1  0
 45 47  1  0
 47 48  2  0
  8  4  1  0
 30 10  1  0
 48 42  1  0
 29 13  1  0
 23 17  1  0
M  CHG  1  31   1
M  END

