
     RDKit          3D

 50 53  0  0  0  0  0  0  0  0999 V2000
   -2.5784   -2.4186    2.5626 C   0  0  0  0  0  0  0  0  0  0  0  0
   -3.8003   -2.6941    1.4793 C   0  0  2  0  0  0  0  0  0  0  0  0
   -2.7800   -2.8567    0.1939 C   0  0  0  0  0  0  0  0  0  0  0  0
   -3.7098   -3.1152   -0.9027 N   0  0  0  0  0  0  0  0  0  0  0  0
   -4.1681   -4.2699   -1.3415 N   0  0  0  0  0  0  0  0  0  0  0  0
   -5.0062   -4.0607   -2.3737 C   0  0  0  0  0  0  0  0  0  0  0  0
   -5.0559   -2.7301   -2.5654 N   0  0  0  0  0  0  0  0  0  0  0  0
   -4.2549   -2.1946   -1.6517 N   0  0  0  0  0  0  0  0  0  0  0  0
   -4.1127   -1.1814    1.2128 N   0  0  0  0  0  0  0  0  0  0  0  0
   -3.1236   -0.3177    0.7833 C   0  0  0  0  0  0  0  0  0  0  0  0
   -3.3384    0.9710    0.5397 N   0  0  0  0  0  0  0  0  0  0  0  0
   -2.3128    1.7699    0.1229 C   0  0  0  0  0  0  0  0  0  0  0  0
   -1.0492    1.2559   -0.0503 C   0  0  0  0  0  0  0  0  0  0  0  0
    0.0293    2.0011   -0.4671 C   0  0  0  0  0  0  0  0  0  0  0  0
    1.2723    1.4111   -0.6182 C   0  0  0  0  0  0  0  0  0  0  0  0
    2.3914    2.1271   -1.0378 O   0  0  0  0  0  0  0  0  0  0  0  0
    3.5227    2.2080   -0.2037 C   0  0  0  0  0  0  0  0  0  0  0  0
    3.5513    1.5882    1.0344 C   0  0  0  0  0  0  0  0  0  0  0  0
    4.6998    1.7180    1.7880 C   0  0  0  0  0  0  0  0  0  0  0  0
    5.8056    2.4278    1.3689 C   0  0  0  0  0  0  0  0  0  0  0  0
    6.9234    2.5326    2.1445 F   0  0  0  0  0  0  0  0  0  0  0  0
    5.7515    3.0384    0.1265 C   0  0  0  0  0  0  0  0  0  0  0  0
    4.6097    2.9229   -0.6492 C   0  0  0  0  0  0  0  0  0  0  0  0
    4.5440    3.5213   -1.8780 F   0  0  0  0  0  0  0  0  0  0  0  0
    1.4468    0.0551   -0.3501 C   0  0  0  0  0  0  0  0  0  0  0  0
    2.5698   -0.5028   -0.4810 O   0  0  0  0  0  0  0  0  0  0  0  0
    0.3666   -0.6395    0.0556 N   0  0  0  0  0  0  0  0  0  0  0  0
    0.5439   -2.0700    0.3400 C   0  0  0  0  0  0  0  0  0  0  0  0
   -0.8473   -0.0717    0.2051 C   0  0  0  0  0  0  0  0  0  0  0  0
   -1.8904   -0.8121    0.6127 N   0  0  0  0  0  0  0  0  0  0  0  0
    6.8691    1.3452   -0.3561 N   0  0  0  0  0  0  0  0  0  0  0  0
    5.8969    0.3452   -0.6908 C   0  0  0  0  0  0  0  0  0  0  0  0
    5.6564    0.0581   -1.9220 N   0  0  0  0  0  4  0  0  0  0  0  0
    5.2067   -0.3203    0.3587 N   0  0  0  0  0  0  0  0  0  0  0  0
    4.2188   -1.3344    0.0798 C   0  0  0  0  0  0  0  0  0  0  0  0
    3.1021   -0.7598   -0.7400 C   0  0  0  0  0  0  0  0  0  0  0  0
    2.3814    0.3675   -0.0870 C   0  0  0  0  0  0  0  0  0  0  0  0
    1.7376    0.0172    1.2152 C   0  0  0  0  0  0  0  0  0  0  0  0
    0.7563   -1.0206    1.1330 N   0  0  0  0  0  0  0  0  0  0  0  0
   -0.3969   -0.8640    0.3099 C   0  0  0  0  0  0  0  0  0  0  0  0
   -0.5049    0.2018   -0.3221 O   0  0  0  0  0  0  0  0  0  0  0  0
   -1.3631   -1.9883    0.2830 C   0  0  0  0  0  0  0  0  0  0  0  0
   -2.5462   -1.7735   -0.5837 C   0  0  0  0  0  0  0  0  0  0  0  0
   -3.3879   -0.6050   -0.2193 C   0  0  0  0  0  0  0  0  0  0  0  0
   -4.4467   -0.7295    0.6794 C   0  0  0  0  0  0  0  0  0  0  0  0
   -5.2375    0.3464    1.0261 C   0  0  0  0  0  0  0  0  0  0  0  0
   -5.0115    1.5989    0.4939 C   0  0  0  0  0  0  0  0  0  0  0  0
   -5.7635    2.7133    0.7982 O   0  0  0  0  0  0  0  0  0  0  0  0
   -3.9760    1.7402   -0.3904 C   0  0  0  0  0  0  0  0  0  0  0  0
   -3.1911    0.6614   -0.7315 C   0  0  0  0  0  0  0  0  0  0  0  0
  2  1  1  1
  2  3  1  0
  3  4  1  0
  4  5  1  0
  5  6  2  0
  6  7  1  0
  7  8  2  0
  2  9  1  0
  9 10  1  0
 10 11  2  0
 11 12  1  0
 12 13  2  0
 13 14  1  0
 14 15  2  0
 15 16  1  0
 16 17  1  0
 17 18  2  0
 18 19  1  0
 19 20  2  0
 20 21  1  0
 20 22  1  0
 22 23  2  0
 23 24  1  0
 15 25  1  0
 25 26  2  0
 25 27  1  0
 27 28  1  0
 27 29  1  0
 29 30  2  0
 31 32  1  0
 32 33  2  0
 32 34  1  0
 34 35  1  0
 35 36  1  0
 36 37  1  0
 37 38  1  0
 38 39  1  0
 39 40  1  0
 40 41  2  0
 40 42  1  0
 42 43  1  0
 43 44  1  0
 44 45  2  0
 45 46  1  0
 46 47  2  0
 47 48  1  0
 47 49  1  0
 49 50  2  0
  8  4  1  0
 30 10  1  0
 50 44  1  0
 29 13  1  0
 23 17  1  0
M  CHG  1  33   1
M  END

