
     RDKit          3D

 43 45  0  0  0  0  0  0  0  0999 V2000
   -5.1037    1.1855    1.1076 C   0  0  0  0  0  0  0  0  0  0  0  0
   -3.7258    1.6129    0.2335 C   0  0  1  0  0  0  0  0  0  0  0  0
   -2.9846    2.0274    1.5378 O   0  0  0  0  0  0  0  0  0  0  0  0
   -3.1227    0.0536    0.3078 C   0  0  0  0  0  0  0  0  0  0  0  0
   -1.6873    0.3751    0.2481 N   0  0  0  0  0  0  0  0  0  0  0  0
   -0.6851   -0.6226    0.2782 C   0  0  0  0  0  0  0  0  0  0  0  0
   -1.0545   -1.8188    0.3590 O   0  0  0  0  0  0  0  0  0  0  0  0
    0.7713   -0.3428    0.2203 C   0  0  0  0  0  0  0  0  0  0  0  0
    1.6067   -1.5731    0.2690 C   0  0  0  0  0  0  0  0  0  0  0  0
    3.0583   -1.1723    0.2040 C   0  0  0  0  0  0  0  0  0  0  0  0
    3.2685   -0.4302   -1.0983 C   0  0  0  0  0  0  0  0  0  0  0  0
    4.7200    0.0012   -1.2213 C   0  0  0  0  0  0  0  0  0  0  0  0
    4.9388    0.7042   -2.4456 N   0  0  0  0  0  4  0  0  0  0  0  0
    6.3248   -0.5389    1.4554 C   0  0  0  0  0  0  0  0  0  0  0  0
    5.0053   -1.4517    1.1201 C   0  0  2  0  0  0  0  0  0  0  0  0
    5.0835   -1.2161   -0.4921 C   0  0  0  0  0  0  0  0  0  0  0  0
    4.9799    0.1953   -0.7505 N   0  0  0  0  0  0  0  0  0  0  0  0
    3.9455    0.9621   -0.9652 N   0  0  0  0  0  0  0  0  0  0  0  0
    4.3916    2.2075   -1.1525 C   0  0  0  0  0  0  0  0  0  0  0  0
    5.7235    2.2056   -1.0511 N   0  0  0  0  0  0  0  0  0  0  0  0
    6.0538    0.9633   -0.8054 N   0  0  0  0  0  0  0  0  0  0  0  0
    3.9840   -0.2994    1.3817 N   0  0  0  0  0  0  0  0  0  0  0  0
    2.6120   -0.7046    1.1858 C   0  0  0  0  0  0  0  0  0  0  0  0
    2.2670   -1.9515    0.8156 N   0  0  0  0  0  0  0  0  0  0  0  0
    0.9932   -2.3425    0.6295 C   0  0  0  0  0  0  0  0  0  0  0  0
   -0.0303   -1.4278    0.8245 C   0  0  0  0  0  0  0  0  0  0  0  0
   -1.3595   -1.7603    0.6515 C   0  0  0  0  0  0  0  0  0  0  0  0
   -2.3495   -0.8201    0.8556 C   0  0  0  0  0  0  0  0  0  0  0  0
   -3.6877   -1.1247    0.6899 O   0  0  0  0  0  0  0  0  0  0  0  0
   -4.3984   -0.4046   -0.2566 C   0  0  0  0  0  0  0  0  0  0  0  0
   -5.4883    0.3271    0.1894 C   0  0  0  0  0  0  0  0  0  0  0  0
   -6.1814    1.0362   -0.7688 C   0  0  0  0  0  0  0  0  0  0  0  0
   -5.8241    1.0292   -2.1009 C   0  0  0  0  0  0  0  0  0  0  0  0
   -6.5904    1.7724   -2.9522 F   0  0  0  0  0  0  0  0  0  0  0  0
   -4.7437    0.3007   -2.5270 C   0  0  0  0  0  0  0  0  0  0  0  0
   -4.0250   -0.4251   -1.5815 C   0  0  0  0  0  0  0  0  0  0  0  0
   -2.9707   -1.1300   -2.0278 F   0  0  0  0  0  0  0  0  0  0  0  0
   -1.9478    0.4355    1.2316 C   0  0  0  0  0  0  0  0  0  0  0  0
   -2.8458    1.2931    1.4181 O   0  0  0  0  0  0  0  0  0  0  0  0
   -0.6505    0.7402    1.3949 N   0  0  0  0  0  0  0  0  0  0  0  0
   -0.2417    2.0883    1.7972 C   0  0  0  0  0  0  0  0  0  0  0  0
    0.3398   -0.1547    1.2035 C   0  0  0  0  0  0  0  0  0  0  0  0
    1.6311    0.1954    1.3791 N   0  0  0  0  0  0  0  0  0  0  0  0
  2  1  1  1
  2  3  1  0
  2  4  1  0
  4  5  1  0
  5  6  1  0
  6  7  2  0
  6  8  1  0
  8  9  1  0
  9 10  1  0
 10 11  1  0
 11 12  1  0
 12 13  1  0
 15 14  1  1
 15 16  1  0
 16 17  1  0
 17 18  1  0
 18 19  2  0
 19 20  1  0
 20 21  2  0
 15 22  1  0
 22 23  1  0
 23 24  2  0
 24 25  1  0
 25 26  2  0
 26 27  1  0
 27 28  2  0
 28 29  1  0
 29 30  1  0
 30 31  2  0
 31 32  1  0
 32 33  2  0
 33 34  1  0
 33 35  1  0
 35 36  2  0
 36 37  1  0
 28 38  1  0
 38 39  2  0
 38 40  1  0
 40 41  1  0
 40 42  1  0
 42 43  2  0
 21 17  1  0
 43 23  1  0
 42 26  1  0
 36 30  1  0
M  CHG  1  13   1
M  END

