
     RDKit          3D

 42 44  0  0  0  0  0  0  0  0999 V2000
    4.1516    0.1234    1.6210 C   0  0  0  0  0  0  0  0  0  0  0  0
    4.8972   -0.8753    0.5220 C   0  0  2  0  0  0  0  0  0  0  0  0
    6.0399    0.2262    0.0610 C   0  0  0  0  0  0  0  0  0  0  0  0
    6.7914    0.5721    1.2128 N   0  0  0  0  0  0  0  0  0  0  0  0
    6.4257    1.5815    1.9831 N   0  0  0  0  0  0  0  0  0  0  0  0
    7.2570    1.7466    3.0112 C   0  0  0  0  0  0  0  0  0  0  0  0
    8.1883    0.7852    2.8679 N   0  0  0  0  0  0  0  0  0  0  0  0
    7.8805    0.0905    1.7714 N   0  0  0  0  0  0  0  0  0  0  0  0
    3.9109   -0.4560   -0.6429 N   0  0  0  0  0  0  0  0  0  0  0  0
    2.5497   -0.7494   -0.3510 C   0  0  0  0  0  0  0  0  0  0  0  0
    2.1239   -1.3105    0.7625 N   0  0  0  0  0  0  0  0  0  0  0  0
    0.8200   -1.5481    0.9478 C   0  0  0  0  0  0  0  0  0  0  0  0
   -0.1545   -1.2294    0.0055 C   0  0  0  0  0  0  0  0  0  0  0  0
   -1.4761   -1.4708    0.1958 C   0  0  0  0  0  0  0  0  0  0  0  0
   -2.4672   -1.1318   -0.7943 C   0  0  0  0  0  0  0  0  0  0  0  0
   -3.7331   -1.4322   -0.4666 O   0  0  0  0  0  0  0  0  0  0  0  0
   -4.8517   -0.7385   -0.2349 C   0  0  0  0  0  0  0  0  0  0  0  0
   -5.3505   -0.7521    1.1181 C   0  0  0  0  0  0  0  0  0  0  0  0
   -6.4714   -0.0994    1.5008 C   0  0  0  0  0  0  0  0  0  0  0  0
   -7.2312    0.6357    0.6210 C   0  0  0  0  0  0  0  0  0  0  0  0
   -8.3509    1.2850    1.0186 F   0  0  0  0  0  0  0  0  0  0  0  0
   -6.7765    0.6615   -0.6693 C   0  0  0  0  0  0  0  0  0  0  0  0
   -5.6137   -0.0109   -1.0886 C   0  0  0  0  0  0  0  0  0  0  0  0
   -5.2952    0.0493   -2.4018 F   0  0  0  0  0  0  0  0  0  0  0  0
   -1.9196   -0.5602   -1.9031 C   0  0  0  0  0  0  0  0  0  0  0  0
   -2.6556   -0.2102   -2.8643 O   0  0  0  0  0  0  0  0  0  0  0  0
   -0.5751   -0.3296   -2.0625 N   0  0  0  0  0  0  0  0  0  0  0  0
   -0.1101    0.2928   -3.3006 C   0  0  0  0  0  0  0  0  0  0  0  0
    0.3403   -0.6440   -1.1435 C   0  0  0  0  0  0  0  0  0  0  0  0
    1.6559   -0.4194   -1.2974 N   0  0  0  0  0  0  0  0  0  0  0  0
    4.3339   -1.1234   -1.8858 N   0  0  0  0  0  0  0  0  0  0  0  0
    3.2118   -0.6058   -1.2115 C   0  0  0  0  0  0  0  0  0  0  0  0
    2.9505    0.6013   -1.3095 O   0  0  0  0  0  0  0  0  0  0  0  0
    2.3682   -1.4911   -0.4054 C   0  0  0  0  0  0  0  0  0  0  0  0
    1.2500   -0.6728    0.1959 C   0  0  0  0  0  0  0  0  0  0  0  0
    0.3318   -1.5268    1.0476 C   0  0  0  0  0  0  0  0  0  0  0  0
   -0.7064   -0.6652    1.5821 N   0  0  0  0  0  0  0  0  0  0  0  0
   -1.5710    0.0385    0.7034 C   0  0  0  0  0  0  0  0  0  0  0  0
   -1.4099   -0.1072   -0.5299 O   0  0  0  0  0  0  0  0  0  0  0  0
   -2.6543    0.9365    1.1601 C   0  0  0  0  0  0  0  0  0  0  0  0
   -3.3985    1.5382    0.0181 C   0  0  0  0  0  0  0  0  0  0  0  0
   -4.7061    2.6227    0.6349 S   0  0  0  0  0  0  0  0  0  0  0  0
  2  1  1  1
  2  3  1  0
  3  4  1  0
  4  5  1  0
  5  6  2  0
  6  7  1  0
  7  8  2  0
  2  9  1  0
  9 10  1  0
 10 11  2  0
 11 12  1  0
 12 13  2  0
 13 14  1  0
 14 15  2  0
 15 16  1  0
 16 17  1  0
 17 18  2  0
 18 19  1  0
 19 20  2  0
 20 21  1  0
 20 22  1  0
 22 23  2  0
 23 24  1  0
 15 25  1  0
 25 26  2  0
 25 27  1  0
 27 28  1  0
 27 29  1  0
 29 30  2  0
 31 32  1  0
 32 33  2  0
 32 34  1  0
 34 35  1  0
 35 36  1  0
 36 37  1  0
 37 38  1  0
 38 39  2  0
 38 40  1  0
 40 41  1  0
 41 42  1  0
  8  4  1  0
 30 10  1  0
 29 13  1  0
 23 17  1  0
M  END

