
     RDKit          3D

 41 43  0  0  0  0  0  0  0  0999 V2000
    1.9549   -0.0902    1.6062 C   0  0  0  0  0  0  0  0  0  0  0  0
    2.5732    0.3863    0.3657 C   0  0  0  0  0  0  0  0  0  0  0  0
    4.0738    0.1717    0.3912 C   0  0  0  0  0  0  0  0  0  0  0  0
    2.0394    0.0008   -0.9323 C   0  0  0  0  0  0  0  0  0  0  0  0
    0.7023    0.3593   -1.2404 N   0  0  0  0  0  0  0  0  0  0  0  0
   -0.4242   -0.0781   -0.5336 C   0  0  0  0  0  0  0  0  0  0  0  0
   -0.3244   -0.8313    0.4297 O   0  0  0  0  0  0  0  0  0  0  0  0
   -1.7217    0.4497   -1.0558 C   0  0  0  0  0  0  0  0  0  0  0  0
   -2.8504   -0.2167   -0.0510 C   0  0  1  0  0  0  0  0  0  0  0  0
   -2.1924    0.5008    1.2844 C   0  0  0  0  0  0  0  0  0  0  0  0
   -3.8304    0.9500   -0.2641 O   0  0  0  0  0  0  0  0  0  0  0  0
    4.2230   -2.3908   -0.1089 C   0  0  0  0  0  0  0  0  0  0  0  0
    4.9661   -1.3751   -1.1883 C   0  0  2  0  0  0  0  0  0  0  0  0
    6.1972   -0.9827   -0.1679 C   0  0  0  0  0  0  0  0  0  0  0  0
    5.6105   -0.3874    1.0011 N   0  0  0  0  0  0  0  0  0  0  0  0
    5.1911   -0.9116    2.1261 N   0  0  0  0  0  0  0  0  0  0  0  0
    4.7208    0.0709    2.9094 C   0  0  0  0  0  0  0  0  0  0  0  0
    4.8550    1.2329    2.2464 N   0  0  0  0  0  0  0  0  0  0  0  0
    5.4013    0.8947    1.0920 N   0  0  0  0  0  0  0  0  0  0  0  0
    4.0742   -0.1282   -0.8157 N   0  0  0  0  0  0  0  0  0  0  0  0
    2.6906   -0.3838   -1.0544 C   0  0  0  0  0  0  0  0  0  0  0  0
    2.2032   -1.5406   -1.5362 N   0  0  0  0  0  0  0  0  0  0  0  0
    0.8976   -1.7770   -1.7596 C   0  0  0  0  0  0  0  0  0  0  0  0
    0.0330   -0.7261   -1.4573 C   0  0  0  0  0  0  0  0  0  0  0  0
   -1.3251   -0.8730   -1.6528 C   0  0  0  0  0  0  0  0  0  0  0  0
   -2.2287    0.1323   -1.3715 C   0  0  0  0  0  0  0  0  0  0  0  0
   -3.5960   -0.0326   -1.5747 O   0  0  0  0  0  0  0  0  0  0  0  0
   -4.4152    0.0960   -0.4625 C   0  0  0  0  0  0  0  0  0  0  0  0
   -5.3898    1.0558   -0.4308 C   0  0  0  0  0  0  0  0  0  0  0  0
   -6.2114    1.1963    0.6660 C   0  0  0  0  0  0  0  0  0  0  0  0
   -6.0776    0.3830    1.7520 C   0  0  0  0  0  0  0  0  0  0  0  0
   -6.8848    0.5092    2.8484 F   0  0  0  0  0  0  0  0  0  0  0  0
   -5.1034   -0.5917    1.7447 C   0  0  0  0  0  0  0  0  0  0  0  0
   -4.2923   -0.7215    0.6478 C   0  0  0  0  0  0  0  0  0  0  0  0
   -3.3267   -1.6747    0.6196 F   0  0  0  0  0  0  0  0  0  0  0  0
   -1.7081    1.3129   -0.8774 C   0  0  0  0  0  0  0  0  0  0  0  0
   -2.5195    2.2439   -0.6143 O   0  0  0  0  0  0  0  0  0  0  0  0
   -0.3771    1.4693   -0.6812 N   0  0  0  0  0  0  0  0  0  0  0  0
    0.0884    2.7319   -0.1622 C   0  0  0  0  0  0  0  0  0  0  0  0
    0.4998    0.4654   -0.9647 C   0  0  0  0  0  0  0  0  0  0  0  0
    1.8037    0.6164   -0.7733 N   0  0  0  0  0  0  0  0  0  0  0  0
  1  2  1  0
  2  3  1  0
  2  4  1  0
  4  5  1  0
  5  6  1  0
  6  7  2  0
  6  8  1  0
  8  9  1  0
  9 10  1  1
  9 11  1  0
 13 12  1  1
 13 14  1  0
 14 15  1  0
 15 16  1  0
 16 17  2  0
 17 18  1  0
 18 19  2  0
 13 20  1  0
 20 21  1  0
 21 22  2  0
 22 23  1  0
 23 24  2  0
 24 25  1  0
 25 26  2  0
 26 27  1  0
 27 28  1  0
 28 29  2  0
 29 30  1  0
 30 31  2  0
 31 32  1  0
 31 33  1  0
 33 34  2  0
 34 35  1  0
 26 36  1  0
 36 37  2  0
 36 38  1  0
 38 39  1  0
 38 40  1  0
 40 41  2  0
 19 15  1  0
 41 21  1  0
 40 24  1  0
 34 28  1  0
M  END

