
     RDKit          3D

 41 43  0  0  0  0  0  0  0  0999 V2000
   -1.3497   -0.6608   -1.4324 C   0  0  0  0  0  0  0  0  0  0  0  0
   -2.4040    0.2135   -0.8125 C   0  0  0  0  0  0  0  0  0  0  0  0
   -3.6536   -0.5586   -0.4341 C   0  0  0  0  0  0  0  0  0  0  0  0
   -1.8850    1.0387    0.3398 C   0  0  0  0  0  0  0  0  0  0  0  0
   -1.3449    0.1786    1.4493 C   0  0  0  0  0  0  0  0  0  0  0  0
   -0.2579   -0.6191    0.9176 N   0  0  0  0  0  0  0  0  0  0  0  0
    0.8540    0.0746    0.3796 C   0  0  0  0  0  0  0  0  0  0  0  0
    0.8885    1.3206    0.3677 O   0  0  0  0  0  0  0  0  0  0  0  0
    1.9732   -0.7134   -0.1678 C   0  0  0  0  0  0  0  0  0  0  0  0
    3.0638    0.2270   -0.6941 C   0  0  0  0  0  0  0  0  0  0  0  0
    4.1158   -0.5011   -1.2085 O   0  0  0  0  0  0  0  0  0  0  0  0
    4.0813   -2.6852   -0.3147 C   0  0  0  0  0  0  0  0  0  0  0  0
    4.2059   -2.6502   -1.9644 C   0  0  2  0  0  0  0  0  0  0  0  0
    4.3280   -1.0087   -2.0379 C   0  0  0  0  0  0  0  0  0  0  0  0
    5.5156   -0.7395   -1.2609 N   0  0  0  0  0  0  0  0  0  0  0  0
    6.7261   -0.6851   -1.7472 N   0  0  0  0  0  0  0  0  0  0  0  0
    7.5678   -0.4161   -0.7425 C   0  0  0  0  0  0  0  0  0  0  0  0
    6.8460   -0.3043    0.3852 N   0  0  0  0  0  0  0  0  0  0  0  0
    5.5915   -0.5105    0.0188 N   0  0  0  0  0  0  0  0  0  0  0  0
    2.6645   -2.7169   -2.2052 N   0  0  0  0  0  0  0  0  0  0  0  0
    1.8451   -1.7530   -1.5921 C   0  0  0  0  0  0  0  0  0  0  0  0
    2.4341   -0.8215   -0.8211 N   0  0  0  0  0  0  0  0  0  0  0  0
    1.6950    0.1228   -0.2126 C   0  0  0  0  0  0  0  0  0  0  0  0
    0.3138    0.1660   -0.3593 C   0  0  0  0  0  0  0  0  0  0  0  0
   -0.4908    1.1044    0.2363 C   0  0  0  0  0  0  0  0  0  0  0  0
   -1.8715    1.0608    0.0249 C   0  0  0  0  0  0  0  0  0  0  0  0
   -2.7037    2.0062    0.6219 O   0  0  0  0  0  0  0  0  0  0  0  0
   -3.6764    1.5284    1.4874 C   0  0  0  0  0  0  0  0  0  0  0  0
   -3.8514    0.1942    1.7794 C   0  0  0  0  0  0  0  0  0  0  0  0
   -4.8343   -0.2605    2.6509 C   0  0  0  0  0  0  0  0  0  0  0  0
   -5.6498    0.6665    3.2315 C   0  0  0  0  0  0  0  0  0  0  0  0
   -6.6239    0.2476    4.0917 F   0  0  0  0  0  0  0  0  0  0  0  0
   -5.4976    2.0176    2.9566 C   0  0  0  0  0  0  0  0  0  0  0  0
   -4.5038    2.4382    2.0798 C   0  0  0  0  0  0  0  0  0  0  0  0
   -4.3654    3.7604    1.8196 F   0  0  0  0  0  0  0  0  0  0  0  0
   -2.4458    0.0939   -0.7707 C   0  0  0  0  0  0  0  0  0  0  0  0
   -3.7089    0.0509   -0.9669 O   0  0  0  0  0  0  0  0  0  0  0  0
   -1.6249   -0.8052   -1.3349 N   0  0  0  0  0  0  0  0  0  0  0  0
   -2.2111   -1.8296   -2.1749 C   0  0  0  0  0  0  0  0  0  0  0  0
   -0.2752   -0.7939   -1.1515 C   0  0  0  0  0  0  0  0  0  0  0  0
    0.5199   -1.7041   -1.7273 N   0  0  0  0  0  0  0  0  0  0  0  0
  1  2  1  0
  2  3  1  0
  2  4  1  0
  4  5  1  0
  5  6  1  0
  6  7  1  0
  7  8  2  0
  7  9  1  0
  9 10  1  0
 10 11  1  0
 13 12  1  1
 13 14  1  0
 14 15  1  0
 15 16  1  0
 16 17  2  0
 17 18  1  0
 18 19  2  0
 13 20  1  0
 20 21  1  0
 21 22  2  0
 22 23  1  0
 23 24  2  0
 24 25  1  0
 25 26  2  0
 26 27  1  0
 27 28  1  0
 28 29  2  0
 29 30  1  0
 30 31  2  0
 31 32  1  0
 31 33  1  0
 33 34  2  0
 34 35  1  0
 26 36  1  0
 36 37  2  0
 36 38  1  0
 38 39  1  0
 38 40  1  0
 40 41  2  0
 19 15  1  0
 41 21  1  0
 40 24  1  0
 34 28  1  0
M  END

