
     RDKit          3D

 36 38  0  0  0  0  0  0  0  0999 V2000
    1.9026   -0.0348   -0.8037 C   0  0  0  0  0  0  0  0  0  0  0  0
    1.5036    0.2414    0.6517 C   0  0  0  0  0  0  0  0  0  0  0  0
    0.2322   -0.4267    0.8378 N   0  0  0  0  0  0  0  0  0  0  0  0
   -0.8301   -0.0229    0.0171 C   0  0  0  0  0  0  0  0  0  0  0  0
   -2.1664   -0.6308    0.1170 C   0  0  0  0  0  0  0  0  0  0  0  0
   -0.6419    0.8738   -0.8198 O   0  0  0  0  0  0  0  0  0  0  0  0
    3.8285   -1.6631    0.5126 C   0  0  0  0  0  0  0  0  0  0  0  0
    4.4302   -0.3971   -0.3799 C   0  0  2  0  0  0  0  0  0  0  0  0
    5.7712   -0.2501    0.5913 C   0  0  0  0  0  0  0  0  0  0  0  0
    6.4849    0.8691   -0.0440 N   0  0  0  0  0  0  0  0  0  0  0  0
    7.3808    0.8063   -0.9906 N   0  0  0  0  0  0  0  0  0  0  0  0
    7.7623    2.0620   -1.2633 C   0  0  0  0  0  0  0  0  0  0  0  0
    7.0893    2.9130   -0.4705 N   0  0  0  0  0  0  0  0  0  0  0  0
    6.3128    2.1339    0.2653 N   0  0  0  0  0  0  0  0  0  0  0  0
    3.6139    0.6802    0.4439 N   0  0  0  0  0  0  0  0  0  0  0  0
    2.1961    0.5053    0.3945 C   0  0  0  0  0  0  0  0  0  0  0  0
    1.3828    1.3518    1.0511 N   0  0  0  0  0  0  0  0  0  0  0  0
    0.0438    1.2398    1.0429 C   0  0  0  0  0  0  0  0  0  0  0  0
   -0.5311    0.2084    0.3280 C   0  0  0  0  0  0  0  0  0  0  0  0
   -1.8690   -0.0076    0.2445 C   0  0  0  0  0  0  0  0  0  0  0  0
   -2.3737   -1.0562   -0.4867 C   0  0  0  0  0  0  0  0  0  0  0  0
   -3.7282   -1.3137   -0.5994 O   0  0  0  0  0  0  0  0  0  0  0  0
   -4.6178   -0.4972    0.0396 C   0  0  0  0  0  0  0  0  0  0  0  0
   -4.1892    0.5777    0.7939 C   0  0  0  0  0  0  0  0  0  0  0  0
   -5.1099    1.3805    1.4247 C   0  0  0  0  0  0  0  0  0  0  0  0
   -6.4670    1.1503    1.3319 C   0  0  0  0  0  0  0  0  0  0  0  0
   -7.3829    1.9364    1.9503 F   0  0  0  0  0  0  0  0  0  0  0  0
   -6.8624    0.0703    0.5721 C   0  0  0  0  0  0  0  0  0  0  0  0
   -5.9713   -0.7574   -0.0751 C   0  0  0  0  0  0  0  0  0  0  0  0
   -6.3597   -1.8136   -0.8181 F   0  0  0  0  0  0  0  0  0  0  0  0
   -1.4922   -1.8819   -1.1319 C   0  0  0  0  0  0  0  0  0  0  0  0
   -1.8947   -2.8656   -1.8217 O   0  0  0  0  0  0  0  0  0  0  0  0
   -0.1694   -1.6780   -1.0563 N   0  0  0  0  0  0  0  0  0  0  0  0
    0.7647   -2.5585   -1.7441 C   0  0  0  0  0  0  0  0  0  0  0  0
    0.3091   -0.6572   -0.3439 C   0  0  0  0  0  0  0  0  0  0  0  0
    1.6482   -0.4878   -0.2941 N   0  0  0  0  0  0  0  0  0  0  0  0
  1  2  1  0
  2  3  1  0
  3  4  1  0
  4  5  1  0
  4  6  2  0
  8  7  1  1
  8  9  1  0
  9 10  1  0
 10 11  1  0
 11 12  2  0
 12 13  1  0
 13 14  2  0
  8 15  1  0
 15 16  1  0
 16 17  2  0
 17 18  1  0
 18 19  2  0
 19 20  1  0
 20 21  2  0
 21 22  1  0
 22 23  1  0
 23 24  2  0
 24 25  1  0
 25 26  2  0
 26 27  1  0
 26 28  1  0
 28 29  2  0
 29 30  1  0
 21 31  1  0
 31 32  2  0
 31 33  1  0
 33 34  1  0
 33 35  1  0
 35 36  2  0
 14 10  1  0
 36 16  1  0
 35 19  1  0
 29 23  1  0
M  END

