
     RDKit          3D

 42 44  0  0  0  0  0  0  0  0999 V2000
    4.0414    1.1594   -0.2813 C   0  0  0  0  0  0  0  0  0  0  0  0
    4.4642    0.2266    1.0103 C   0  0  2  0  0  0  0  0  0  0  0  0
    5.7708   -0.4505    0.2745 C   0  0  0  0  0  0  0  0  0  0  0  0
    6.6799    0.5794   -0.0831 N   0  0  0  0  0  0  0  0  0  0  0  0
    6.6466    1.2095   -1.2485 N   0  0  0  0  0  0  0  0  0  0  0  0
    7.6204    2.1296   -1.3085 C   0  0  0  0  0  0  0  0  0  0  0  0
    8.2839    2.0727   -0.1427 N   0  0  0  0  0  0  0  0  0  0  0  0
    7.6902    1.1298    0.5677 N   0  0  0  0  0  0  0  0  0  0  0  0
    3.5378   -0.9532    0.5889 N   0  0  0  0  0  0  0  0  0  0  0  0
    2.1568   -0.6551    0.4965 C   0  0  0  0  0  0  0  0  0  0  0  0
    1.6245    0.5483    0.7444 N   0  0  0  0  0  0  0  0  0  0  0  0
    0.2869    0.7237    0.6253 C   0  0  0  0  0  0  0  0  0  0  0  0
   -0.5488   -0.3152    0.2518 C   0  0  0  0  0  0  0  0  0  0  0  0
   -1.9142   -0.1676    0.1222 C   0  0  0  0  0  0  0  0  0  0  0  0
   -2.7105   -1.2541   -0.2589 C   0  0  0  0  0  0  0  0  0  0  0  0
   -4.0781   -1.1380   -0.3970 O   0  0  0  0  0  0  0  0  0  0  0  0
   -4.6596    0.0908   -0.1486 C   0  0  0  0  0  0  0  0  0  0  0  0
   -3.9537    1.2024    0.2278 C   0  0  0  0  0  0  0  0  0  0  0  0
   -4.5442    2.4141    0.4707 C   0  0  0  0  0  0  0  0  0  0  0  0
   -5.9149    2.5423    0.3353 C   0  0  0  0  0  0  0  0  0  0  0  0
   -6.5338    3.7106    0.5633 F   0  0  0  0  0  0  0  0  0  0  0  0
   -6.6303    1.4275   -0.0432 C   0  0  0  0  0  0  0  0  0  0  0  0
   -6.0263    0.1991   -0.2887 C   0  0  0  0  0  0  0  0  0  0  0  0
   -6.7436   -0.8870   -0.6599 F   0  0  0  0  0  0  0  0  0  0  0  0
   -2.1076   -2.4696   -0.5012 C   0  0  0  0  0  0  0  0  0  0  0  0
   -2.8488   -3.4273   -0.8419 O   0  0  0  0  0  0  0  0  0  0  0  0
   -0.7728   -2.5725   -0.3636 N   0  0  0  0  0  0  0  0  0  0  0  0
   -0.1874   -3.8727   -0.6302 C   0  0  0  0  0  0  0  0  0  0  0  0
    0.0182   -1.5491    0.0003 C   0  0  0  0  0  0  0  0  0  0  0  0
    1.3529   -1.6539    0.1374 N   0  0  0  0  0  0  0  0  0  0  0  0
   -3.6870   -0.9530   -0.3153 O   0  0  0  0  0  1  0  0  0  0  0  0
   -3.1425   -0.3137    0.7852 C   0  0  0  0  0  0  0  0  0  0  0  0
   -3.7237   -0.4535    1.8933 O   0  0  0  0  0  0  0  0  0  0  0  0
   -1.9167    0.4946    0.6092 C   0  0  0  0  0  0  0  0  0  0  0  0
   -1.4947    0.4435   -0.8357 C   0  0  0  0  0  0  0  0  0  0  0  0
   -0.2579    1.2351   -1.1144 C   0  0  0  0  0  0  0  0  0  0  0  0
    0.8411    0.6737   -0.2811 C   0  0  0  0  0  0  0  0  0  0  0  0
    0.6704   -0.3061    0.5013 O   0  0  0  0  0  0  0  0  0  0  0  0
    2.1260    1.2473   -0.3581 N   0  0  0  0  0  0  0  0  0  0  0  0
    3.2664    0.7794    0.4085 C   0  0  0  0  0  0  0  0  0  0  0  0
    3.5240   -0.6757    0.0372 C   0  0  0  0  0  0  0  0  0  0  0  0
    3.7947   -0.7674   -1.3301 O   0  0  0  0  0  0  0  0  0  0  0  0
  2  1  1  6
  2  3  1  0
  3  4  1  0
  4  5  1  0
  5  6  2  0
  6  7  1  0
  7  8  2  0
  2  9  1  0
  9 10  1  0
 10 11  2  0
 11 12  1  0
 12 13  2  0
 13 14  1  0
 14 15  2  0
 15 16  1  0
 16 17  1  0
 17 18  2  0
 18 19  1  0
 19 20  2  0
 20 21  1  0
 20 22  1  0
 22 23  2  0
 23 24  1  0
 15 25  1  0
 25 26  2  0
 25 27  1  0
 27 28  1  0
 27 29  1  0
 29 30  2  0
 31 32  1  0
 32 33  2  0
 32 34  1  0
 34 35  1  0
 35 36  1  0
 36 37  1  0
 37 38  2  0
 37 39  1  0
 39 40  1  0
 40 41  1  0
 41 42  1  0
  8  4  1  0
 30 10  1  0
 29 13  1  0
 23 17  1  0
M  RAD  1  31   2
M  END

