
     RDKit          3D

 41 43  0  0  0  0  0  0  0  0999 V2000
    4.1873   -0.3236   -1.0582 C   0  0  0  0  0  0  0  0  0  0  0  0
    3.2872   -1.5205   -1.0835 C   0  0  0  0  0  0  0  0  0  0  0  0
    1.9168   -1.1265   -1.2864 N   0  0  0  0  0  0  0  0  0  0  0  0
    1.2624   -0.2565   -0.3528 C   0  0  0  0  0  0  0  0  0  0  0  0
    1.9455    0.1341    0.6352 O   0  0  0  0  0  0  0  0  0  0  0  0
   -0.1431    0.1543   -0.5507 C   0  0  0  0  0  0  0  0  0  0  0  0
   -0.5644    1.0553    0.5652 C   0  0  0  0  0  0  0  0  0  0  0  0
   -1.9722    1.5310    0.4641 C   0  0  0  0  0  0  0  0  0  0  0  0
   -2.9598    0.4211    0.4672 C   0  0  0  0  0  0  0  0  0  0  0  0
   -4.3383    0.7238    0.3766 N   0  0  0  0  0  0  0  0  0  0  0  0
   -2.6213   -0.7924    0.5480 O   0  0  0  0  0  0  0  0  0  0  0  0
    4.8655    0.5351   -1.7095 C   0  0  0  0  0  0  0  0  0  0  0  0
    5.3504    1.1504   -0.2817 C   0  0  2  0  0  0  0  0  0  0  0  0
    4.7620   -0.0590    0.6229 C   0  0  0  0  0  0  0  0  0  0  0  0
    5.3858   -1.2758    0.2210 N   0  0  0  0  0  0  0  0  0  0  0  0
    4.8842   -2.0487   -0.7314 N   0  0  0  0  0  0  0  0  0  0  0  0
    5.6663   -3.1314   -0.9135 C   0  0  0  0  0  0  0  0  0  0  0  0
    6.6665   -3.0107   -0.0495 N   0  0  0  0  0  0  0  0  0  0  0  0
    6.4821   -1.8936    0.6215 N   0  0  0  0  0  0  0  0  0  0  0  0
    4.1453    2.0855   -0.0653 N   0  0  0  0  0  0  0  0  0  0  0  0
    2.8458    1.5837   -0.0552 C   0  0  0  0  0  0  0  0  0  0  0  0
    2.6708    0.2574   -0.2421 N   0  0  0  0  0  0  0  0  0  0  0  0
    1.5012   -0.3651   -0.2594 C   0  0  0  0  0  0  0  0  0  0  0  0
    0.3682    0.4023   -0.0713 C   0  0  0  0  0  0  0  0  0  0  0  0
   -0.8657   -0.1539   -0.0749 C   0  0  0  0  0  0  0  0  0  0  0  0
   -2.0360    0.6063    0.1141 C   0  0  0  0  0  0  0  0  0  0  0  0
   -3.1429   -0.0106    0.0932 O   0  0  0  0  0  0  0  0  0  0  0  0
   -4.2494   -0.6273    0.0724 C   0  0  0  0  0  0  0  0  0  0  0  0
   -4.2509   -2.0156   -0.1313 C   0  0  0  0  0  0  0  0  0  0  0  0
   -5.4100   -2.7462   -0.1656 C   0  0  0  0  0  0  0  0  0  0  0  0
   -6.6093   -2.1098    0.0034 C   0  0  0  0  0  0  0  0  0  0  0  0
   -7.7481   -2.8509   -0.0335 F   0  0  0  0  0  0  0  0  0  0  0  0
   -6.6498   -0.7671    0.2031 C   0  0  0  0  0  0  0  0  0  0  0  0
   -5.4804   -0.0310    0.2375 C   0  0  0  0  0  0  0  0  0  0  0  0
   -5.6069    1.3115    0.4424 F   0  0  0  0  0  0  0  0  0  0  0  0
   -1.8309    1.9787    0.3059 C   0  0  0  0  0  0  0  0  0  0  0  0
   -2.8780    2.6457    0.4730 O   0  0  0  0  0  0  0  0  0  0  0  0
   -0.5998    2.5146    0.3066 N   0  0  0  0  0  0  0  0  0  0  0  0
   -0.4849    3.9509    0.5139 C   0  0  0  0  0  0  0  0  0  0  0  0
    0.5067    1.7701    0.1241 C   0  0  0  0  0  0  0  0  0  0  0  0
    1.7421    2.3047    0.1240 N   0  0  0  0  0  0  0  0  0  0  0  0
  1  2  1  0
  2  3  1  0
  3  4  1  0
  4  5  2  0
  4  6  1  0
  6  7  1  0
  7  8  1  0
  8  9  1  0
  9 10  1  0
  9 11  2  0
 13 12  1  6
 13 14  1  0
 14 15  1  0
 15 16  1  0
 16 17  2  0
 17 18  1  0
 18 19  2  0
 13 20  1  0
 20 21  1  0
 21 22  2  0
 22 23  1  0
 23 24  2  0
 24 25  1  0
 25 26  2  0
 26 27  1  0
 27 28  1  0
 28 29  2  0
 29 30  1  0
 30 31  2  0
 31 32  1  0
 31 33  1  0
 33 34  2  0
 34 35  1  0
 26 36  1  0
 36 37  2  0
 36 38  1  0
 38 39  1  0
 38 40  1  0
 40 41  2  0
 19 15  1  0
 41 21  1  0
 40 24  1  0
 34 28  1  0
M  END

