
     RDKit          3D

 39 41  0  0  0  0  0  0  0  0999 V2000
    3.1653    0.4937    0.7211 C   0  0  0  0  0  0  0  0  0  0  0  0
    1.7194    0.5179    0.3081 C   0  0  0  0  0  0  0  0  0  0  0  0
    0.8733    0.8084    1.1864 O   0  0  0  0  0  0  0  0  0  0  0  0
    1.2893    0.2372   -0.9818 N   0  0  0  0  0  0  0  0  0  0  0  0
    0.0181    0.2039   -1.5579 C   0  0  0  0  0  0  0  0  0  0  0  0
   -1.0207   -0.7054   -1.0855 C   0  0  0  0  0  0  0  0  0  0  0  0
   -1.4072   -0.3993    0.3388 C   0  0  0  0  0  0  0  0  0  0  0  0
   -2.4777   -1.4370    0.7207 C   0  0  0  0  0  0  0  0  0  0  0  0
   -2.1599    0.9640    0.3500 C   0  0  0  0  0  0  0  0  0  0  0  0
   -6.1143   -1.3271   -1.3560 C   0  0  0  0  0  0  0  0  0  0  0  0
   -4.6217   -1.3148   -0.6950 C   0  0  2  0  0  0  0  0  0  0  0  0
   -5.0079   -0.2619    0.4815 C   0  0  0  0  0  0  0  0  0  0  0  0
   -5.4555    0.9584   -0.1145 N   0  0  0  0  0  0  0  0  0  0  0  0
   -6.6847    1.2511   -0.4346 N   0  0  0  0  0  0  0  0  0  0  0  0
   -6.7170    2.4815   -0.9694 C   0  0  0  0  0  0  0  0  0  0  0  0
   -5.4636    2.9533   -0.9745 N   0  0  0  0  0  0  0  0  0  0  0  0
   -4.7226    2.0065   -0.4499 N   0  0  0  0  0  0  0  0  0  0  0  0
   -4.0503   -0.2565   -1.6772 N   0  0  0  0  0  0  0  0  0  0  0  0
   -2.6693    0.0197   -1.3762 C   0  0  0  0  0  0  0  0  0  0  0  0
   -1.9781    0.9238   -2.1233 N   0  0  0  0  0  0  0  0  0  0  0  0
   -0.6922    1.2146   -1.8824 C   0  0  0  0  0  0  0  0  0  0  0  0
   -0.0192    0.5889   -0.8442 C   0  0  0  0  0  0  0  0  0  0  0  0
    1.2793    0.8376   -0.5489 C   0  0  0  0  0  0  0  0  0  0  0  0
    1.9663    0.1988    0.5108 C   0  0  0  0  0  0  0  0  0  0  0  0
    3.2095    0.5395    0.6752 O   0  0  0  0  0  0  0  0  0  0  0  0
    4.4958    0.1958    0.6828 C   0  0  0  0  0  0  0  0  0  0  0  0
    5.3404    0.8205   -0.2975 C   0  0  0  0  0  0  0  0  0  0  0  0
    6.6554    0.5666   -0.4020 C   0  0  0  0  0  0  0  0  0  0  0  0
    7.2684   -0.3338    0.4558 C   0  0  0  0  0  0  0  0  0  0  0  0
    8.5986   -0.5996    0.3571 F   0  0  0  0  0  0  0  0  0  0  0  0
    6.4868   -0.9353    1.3913 C   0  0  0  0  0  0  0  0  0  0  0  0
    5.1180   -0.6869    1.5193 C   0  0  0  0  0  0  0  0  0  0  0  0
    4.4442   -1.3430    2.5235 F   0  0  0  0  0  0  0  0  0  0  0  0
    1.2218   -0.6906    1.2181 C   0  0  0  0  0  0  0  0  0  0  0  0
    1.6877   -1.3290    2.1818 O   0  0  0  0  0  0  0  0  0  0  0  0
   -0.0678   -0.9366    0.9229 N   0  0  0  0  0  0  0  0  0  0  0  0
   -0.8072   -1.8852    1.7008 C   0  0  0  0  0  0  0  0  0  0  0  0
   -0.7141   -0.3246   -0.0877 C   0  0  0  0  0  0  0  0  0  0  0  0
   -1.9868   -0.5602   -0.3874 N   0  0  0  0  0  0  0  0  0  0  0  0
  1  2  1  0
  2  3  2  0
  2  4  1  0
  4  5  1  0
  5  6  1  0
  6  7  1  0
  7  8  1  0
  7  9  1  0
 11 10  1  6
 11 12  1  0
 12 13  1  0
 13 14  1  0
 14 15  2  0
 15 16  1  0
 16 17  2  0
 11 18  1  0
 18 19  1  0
 19 20  2  0
 20 21  1  0
 21 22  2  0
 22 23  1  0
 23 24  2  0
 24 25  1  0
 25 26  1  0
 26 27  2  0
 27 28  1  0
 28 29  2  0
 29 30  1  0
 29 31  1  0
 31 32  2  0
 32 33  1  0
 24 34  1  0
 34 35  2  0
 34 36  1  0
 36 37  1  0
 36 38  1  0
 38 39  2  0
 17 13  1  0
 39 19  1  0
 38 22  1  0
 32 26  1  0
M  END

