
     RDKit          3D

 42 44  0  0  0  0  0  0  0  0999 V2000
    2.7126    0.5486   -3.4285 C   0  0  0  0  0  0  0  0  0  0  0  0
    3.3292    1.1572   -1.8295 S   0  0  0  0  0  0  0  0  0  0  0  0
    2.2973    0.5725   -0.4597 C   0  0  0  0  0  0  0  0  0  0  0  0
    2.3574   -0.9078   -0.2622 C   0  0  0  0  0  0  0  0  0  0  0  0
    1.4677   -1.2629    0.8953 C   0  0  0  0  0  0  0  0  0  0  0  0
    0.0645   -0.8204    0.5507 C   0  0  0  0  0  0  0  0  0  0  0  0
   -0.1032   -0.2849   -0.5421 O   0  0  0  0  0  0  0  0  0  0  0  0
   -0.9643   -1.0243    1.4498 N   0  0  0  0  0  0  0  0  0  0  0  0
   -2.3114   -0.6924    1.3325 C   0  0  0  0  0  0  0  0  0  0  0  0
   -2.4135    0.9500    1.1730 C   0  0  1  0  0  0  0  0  0  0  0  0
   -2.4518    0.8559   -0.5213 C   0  0  0  0  0  0  0  0  0  0  0  0
   -3.9844    0.9085    1.1755 O   0  0  0  0  0  0  0  0  0  0  0  0
    3.3750   -1.8853    0.7778 C   0  0  0  0  0  0  0  0  0  0  0  0
    3.7706   -2.7753   -0.5670 C   0  0  2  0  0  0  0  0  0  0  0  0
    5.3906   -2.6604   -0.2523 C   0  0  0  0  0  0  0  0  0  0  0  0
    5.7493   -1.2932   -0.2454 N   0  0  0  0  0  0  0  0  0  0  0  0
    5.7125   -0.5437    0.8703 N   0  0  0  0  0  0  0  0  0  0  0  0
    6.0978    0.7004    0.5954 C   0  0  0  0  0  0  0  0  0  0  0  0
    6.3807    0.7307   -0.7142 N   0  0  0  0  0  0  0  0  0  0  0  0
    6.1603   -0.4791   -1.1823 N   0  0  0  0  0  0  0  0  0  0  0  0
    3.6641   -1.5285   -1.5276 N   0  0  0  0  0  0  0  0  0  0  0  0
    2.3812   -0.9373   -1.5328 C   0  0  0  0  0  0  0  0  0  0  0  0
    2.1454    0.1538   -2.3213 N   0  0  0  0  0  0  0  0  0  0  0  0
    0.9347    0.7285   -2.3397 C   0  0  0  0  0  0  0  0  0  0  0  0
   -0.0653    0.2133   -1.5614 C   0  0  0  0  0  0  0  0  0  0  0  0
   -1.3344    0.7987   -1.5670 C   0  0  0  0  0  0  0  0  0  0  0  0
   -2.3382    0.2664   -0.7736 C   0  0  0  0  0  0  0  0  0  0  0  0
   -3.5988    0.8466   -0.7782 O   0  0  0  0  0  0  0  0  0  0  0  0
   -4.1309    1.3585    0.4049 C   0  0  0  0  0  0  0  0  0  0  0  0
   -3.4155    1.2968    1.5845 C   0  0  0  0  0  0  0  0  0  0  0  0
   -3.8721    1.7770    2.7804 C   0  0  0  0  0  0  0  0  0  0  0  0
   -5.1140    2.3576    2.8258 C   0  0  0  0  0  0  0  0  0  0  0  0
   -5.5734    2.8372    4.0135 F   0  0  0  0  0  0  0  0  0  0  0  0
   -5.8664    2.4407    1.6654 C   0  0  0  0  0  0  0  0  0  0  0  0
   -5.3712    1.9408    0.4605 C   0  0  0  0  0  0  0  0  0  0  0  0
   -6.1280    2.0355   -0.6574 F   0  0  0  0  0  0  0  0  0  0  0  0
   -2.0736   -0.8302    0.0088 C   0  0  0  0  0  0  0  0  0  0  0  0
   -2.9996   -1.2856    0.7120 O   0  0  0  0  0  0  0  0  0  0  0  0
   -0.8298   -1.3853   -0.0005 N   0  0  0  0  0  0  0  0  0  0  0  0
   -0.6017   -2.5602    0.8580 C   0  0  0  0  0  0  0  0  0  0  0  0
    0.1630   -0.8882   -0.7618 C   0  0  0  0  0  0  0  0  0  0  0  0
    1.3877   -1.4301   -0.7748 N   0  0  0  0  0  0  0  0  0  0  0  0
  1  2  1  0
  2  3  1  0
  3  4  1  0
  4  5  1  0
  5  6  1  0
  6  7  2  0
  6  8  1  0
  8  9  1  0
  9 10  1  0
 10 11  1  6
 10 12  1  0
 14 13  1  1
 14 15  1  0
 15 16  1  0
 16 17  1  0
 17 18  2  0
 18 19  1  0
 19 20  2  0
 14 21  1  0
 21 22  1  0
 22 23  2  0
 23 24  1  0
 24 25  2  0
 25 26  1  0
 26 27  2  0
 27 28  1  0
 28 29  1  0
 29 30  2  0
 30 31  1  0
 31 32  2  0
 32 33  1  0
 32 34  1  0
 34 35  2  0
 35 36  1  0
 27 37  1  0
 37 38  2  0
 37 39  1  0
 39 40  1  0
 39 41  1  0
 41 42  2  0
 20 16  1  0
 42 22  1  0
 41 25  1  0
 35 29  1  0
M  END

