
     RDKit          3D

 42 44  0  0  0  0  0  0  0  0999 V2000
    3.4175   -1.4779    0.8966 C   0  0  0  0  0  0  0  0  0  0  0  0
    2.9236   -0.0661    0.7063 C   0  0  0  0  0  0  0  0  0  0  0  0
    2.8693    0.1992   -0.8821 C   0  0  2  0  0  0  0  0  0  0  0  0
    2.3343    1.7065   -0.7813 C   0  0  0  0  0  0  0  0  0  0  0  0
    1.4485   -0.4813   -1.1268 C   0  0  0  0  0  0  0  0  0  0  0  0
    0.3985    0.1484   -0.3488 C   0  0  0  0  0  0  0  0  0  0  0  0
    0.6855    1.0561    0.4694 O   0  0  0  0  0  0  0  0  0  0  0  0
   -0.9794   -0.1868   -0.4371 N   0  0  0  0  0  0  0  0  0  0  0  0
   -1.9397    0.5114    0.3909 C   0  0  0  0  0  0  0  0  0  0  0  0
   -3.2993   -0.0204    0.1121 C   0  0  0  0  0  0  0  0  0  0  0  0
   -3.4381   -1.4792    0.3925 C   0  0  0  0  0  0  0  0  0  0  0  0
   -4.4207    0.8194    0.6084 C   0  0  0  0  0  0  0  0  0  0  0  0
    5.8886   -0.0764    1.1065 C   0  0  0  0  0  0  0  0  0  0  0  0
    4.3139   -0.5313    0.7785 C   0  0  2  0  0  0  0  0  0  0  0  0
    4.1787    0.6140   -0.4259 C   0  0  0  0  0  0  0  0  0  0  0  0
    5.2345    0.1976   -1.3330 N   0  0  0  0  0  0  0  0  0  0  0  0
    5.0794   -0.6493   -2.3230 N   0  0  0  0  0  0  0  0  0  0  0  0
    6.2503   -0.8156   -2.9635 C   0  0  0  0  0  0  0  0  0  0  0  0
    7.1471   -0.0373   -2.3338 N   0  0  0  0  0  0  0  0  0  0  0  0
    6.4949    0.5598   -1.3529 N   0  0  0  0  0  0  0  0  0  0  0  0
    3.7237    0.4319    1.8676 N   0  0  0  0  0  0  0  0  0  0  0  0
    2.3145    0.3538    1.9257 C   0  0  0  0  0  0  0  0  0  0  0  0
    1.6336    1.1150    2.8080 N   0  0  0  0  0  0  0  0  0  0  0  0
    0.3018    1.0371    2.8586 C   0  0  0  0  0  0  0  0  0  0  0  0
   -0.4491    0.2150    2.0553 C   0  0  0  0  0  0  0  0  0  0  0  0
   -1.8194    0.1294    2.1015 C   0  0  0  0  0  0  0  0  0  0  0  0
   -2.4824   -0.7319    1.2474 C   0  0  0  0  0  0  0  0  0  0  0  0
   -3.8705   -0.8288    1.2834 O   0  0  0  0  0  0  0  0  0  0  0  0
   -4.5553   -0.5152    0.1224 C   0  0  0  0  0  0  0  0  0  0  0  0
   -5.3445   -1.4911   -0.4557 C   0  0  0  0  0  0  0  0  0  0  0  0
   -6.0335   -1.2201   -1.5986 C   0  0  0  0  0  0  0  0  0  0  0  0
   -5.9305    0.0464   -2.1706 C   0  0  0  0  0  0  0  0  0  0  0  0
   -6.6021    0.3511   -3.3076 F   0  0  0  0  0  0  0  0  0  0  0  0
   -5.1344    1.0112   -1.5764 C   0  0  0  0  0  0  0  0  0  0  0  0
   -4.4248    0.7494   -0.4090 C   0  0  0  0  0  0  0  0  0  0  0  0
   -3.6596    1.7187    0.1381 F   0  0  0  0  0  0  0  0  0  0  0  0
   -1.7478   -1.4957    0.3570 C   0  0  0  0  0  0  0  0  0  0  0  0
   -2.3429   -2.2889   -0.4311 O   0  0  0  0  0  0  0  0  0  0  0  0
   -0.4074   -1.3854    0.3402 N   0  0  0  0  0  0  0  0  0  0  0  0
    0.3603   -2.1946   -0.6021 C   0  0  0  0  0  0  0  0  0  0  0  0
    0.2746   -0.5548    1.1596 C   0  0  0  0  0  0  0  0  0  0  0  0
    1.6083   -0.4540    1.1332 N   0  0  0  0  0  0  0  0  0  0  0  0
  1  2  1  0
  2  3  1  0
  3  4  1  1
  3  5  1  0
  5  6  1  0
  6  7  2  0
  6  8  1  0
  8  9  1  0
  9 10  1  0
 10 11  1  0
 10 12  1  0
 14 13  1  1
 14 15  1  0
 15 16  1  0
 16 17  1  0
 17 18  2  0
 18 19  1  0
 19 20  2  0
 14 21  1  0
 21 22  1  0
 22 23  2  0
 23 24  1  0
 24 25  2  0
 25 26  1  0
 26 27  2  0
 27 28  1  0
 28 29  1  0
 29 30  2  0
 30 31  1  0
 31 32  2  0
 32 33  1  0
 32 34  1  0
 34 35  2  0
 35 36  1  0
 27 37  1  0
 37 38  2  0
 37 39  1  0
 39 40  1  0
 39 41  1  0
 41 42  2  0
 20 16  1  0
 42 22  1  0
 41 25  1  0
 35 29  1  0
M  END

