
     RDKit          3D

 38 40  0  0  0  0  0  0  0  0999 V2000
    3.1926    0.2079    0.0912 C   0  0  0  0  0  0  0  0  0  0  0  0
    1.9483    0.5441   -0.5892 N   0  0  0  0  0  0  0  0  0  0  0  0
    0.7141   -0.0359   -0.2035 C   0  0  0  0  0  0  0  0  0  0  0  0
    0.7739   -0.8485    0.7539 O   0  0  0  0  0  0  0  0  0  0  0  0
   -0.5527    0.2480   -0.8284 C   0  0  0  0  0  0  0  0  0  0  0  0
   -1.7474   -0.6025   -0.1196 C   0  0  1  0  0  0  0  0  0  0  0  0
   -1.5402    0.0402    1.3861 C   0  0  0  0  0  0  0  0  0  0  0  0
   -2.7886    0.4469   -0.4906 O   0  0  0  0  0  0  0  0  0  0  0  0
    5.1971   -2.4798    3.2582 C   0  0  0  0  0  0  0  0  0  0  0  0
    4.6402   -1.2256    2.3225 C   0  0  1  0  0  0  0  0  0  0  0  0
    5.5442   -1.7252    1.0718 C   0  0  0  0  0  0  0  0  0  0  0  0
    5.3888   -0.9030   -0.0368 N   0  0  0  0  0  0  0  0  0  0  0  0
    6.1286    0.1946   -0.2746 N   0  0  0  0  0  0  0  0  0  0  0  0
    5.7628    0.7634   -1.4213 C   0  0  0  0  0  0  0  0  0  0  0  0
    4.7966    0.0389   -1.9177 N   0  0  0  0  0  0  0  0  0  0  0  0
    4.5681   -0.9641   -1.0888 N   0  0  0  0  0  0  0  0  0  0  0  0
    3.3576   -1.9850    1.9237 N   0  0  0  0  0  0  0  0  0  0  0  0
    2.3290   -1.2383    1.2664 C   0  0  0  0  0  0  0  0  0  0  0  0
    2.5494    0.0674    1.0616 N   0  0  0  0  0  0  0  0  0  0  0  0
    1.7031    0.9176    0.4650 C   0  0  0  0  0  0  0  0  0  0  0  0
    0.5015    0.3395    0.0391 C   0  0  0  0  0  0  0  0  0  0  0  0
   -0.4638    1.0906   -0.5898 C   0  0  0  0  0  0  0  0  0  0  0  0
   -1.6409    0.5395   -1.0107 C   0  0  0  0  0  0  0  0  0  0  0  0
   -2.5492    1.3695   -1.6315 O   0  0  0  0  0  0  0  0  0  0  0  0
   -3.8089    1.5038   -1.0389 C   0  0  0  0  0  0  0  0  0  0  0  0
   -4.1502    0.8414    0.1205 C   0  0  0  0  0  0  0  0  0  0  0  0
   -5.3743    0.9614    0.7113 C   0  0  0  0  0  0  0  0  0  0  0  0
   -6.3498    1.7751    0.1556 C   0  0  0  0  0  0  0  0  0  0  0  0
   -7.5659    1.8889    0.7504 F   0  0  0  0  0  0  0  0  0  0  0  0
   -6.0195    2.4358   -0.9944 C   0  0  0  0  0  0  0  0  0  0  0  0
   -4.7860    2.3079   -1.5798 C   0  0  0  0  0  0  0  0  0  0  0  0
   -4.4466    2.9667   -2.7329 F   0  0  0  0  0  0  0  0  0  0  0  0
   -1.8370   -0.8026   -0.7859 C   0  0  0  0  0  0  0  0  0  0  0  0
   -2.9303   -1.3632   -1.1653 O   0  0  0  0  0  0  0  0  0  0  0  0
   -0.9052   -1.5471   -0.1743 N   0  0  0  0  0  0  0  0  0  0  0  0
   -1.0937   -2.9811    0.0757 C   0  0  0  0  0  0  0  0  0  0  0  0
    0.2641   -1.0008    0.2441 C   0  0  0  0  0  0  0  0  0  0  0  0
    1.1904   -1.7864    0.8628 N   0  0  0  0  0  0  0  0  0  0  0  0
  1  2  1  0
  2  3  1  0
  3  4  2  0
  3  5  1  0
  5  6  1  0
  6  7  1  1
  6  8  1  0
 10  9  1  6
 10 11  1  0
 11 12  1  0
 12 13  1  0
 13 14  2  0
 14 15  1  0
 15 16  2  0
 10 17  1  0
 17 18  1  0
 18 19  2  0
 19 20  1  0
 20 21  2  0
 21 22  1  0
 22 23  2  0
 23 24  1  0
 24 25  1  0
 25 26  2  0
 26 27  1  0
 27 28  2  0
 28 29  1  0
 28 30  1  0
 30 31  2  0
 31 32  1  0
 23 33  1  0
 33 34  2  0
 33 35  1  0
 35 36  1  0
 35 37  1  0
 37 38  2  0
 16 12  1  0
 38 18  1  0
 37 21  1  0
 31 25  1  0
M  END

