
     RDKit          3D

 43 46  0  0  0  0  0  0  0  0999 V2000
    4.1472    0.5888   -0.8803 C   0  0  0  0  0  0  0  0  0  0  0  0
    3.4763   -0.1472    0.1679 N   0  0  0  0  0  0  0  0  0  0  0  0
    2.2013   -0.7201   -0.1215 C   0  0  0  0  0  0  0  0  0  0  0  0
    1.7522   -0.5422   -1.2721 O   0  0  0  0  0  0  0  0  0  0  0  0
    1.4569   -1.4798    0.8842 C   0  0  0  0  0  0  0  0  0  0  0  0
    0.1090   -1.9327    0.4518 C   0  0  0  0  0  0  0  0  0  0  0  0
   -0.7783   -0.7926    0.1316 C   0  0  0  0  0  0  0  0  0  0  0  0
   -0.9033   -0.2862   -1.1419 C   0  0  0  0  0  0  0  0  0  0  0  0
   -1.7407    0.7759   -1.3949 C   0  0  0  0  0  0  0  0  0  0  0  0
   -2.4820    1.3721   -0.3971 C   0  0  0  0  0  0  0  0  0  0  0  0
   -3.3293    2.4577   -0.6919 O   0  0  0  0  0  0  0  0  0  0  0  0
   -2.3698    0.8798    0.8796 C   0  0  0  0  0  0  0  0  0  0  0  0
   -1.5395   -0.1734    1.1312 C   0  0  0  0  0  0  0  0  0  0  0  0
    4.4157   -2.2156   -1.4413 C   0  0  0  0  0  0  0  0  0  0  0  0
    4.7675   -0.6182   -1.1549 C   0  0  2  0  0  0  0  0  0  0  0  0
    5.9337   -1.0225   -0.0138 C   0  0  0  0  0  0  0  0  0  0  0  0
    6.4257    0.2663    0.4186 N   0  0  0  0  0  0  0  0  0  0  0  0
    7.4348    0.8732   -0.1623 N   0  0  0  0  0  0  0  0  0  0  0  0
    7.6524    2.0348    0.4553 C   0  0  0  0  0  0  0  0  0  0  0  0
    6.7395    2.1506    1.4601 N   0  0  0  0  0  0  0  0  0  0  0  0
    6.0135    1.0447    1.3956 N   0  0  0  0  0  0  0  0  0  0  0  0
    3.6568   -0.4399   -0.0393 N   0  0  0  0  0  0  0  0  0  0  0  0
    2.3260   -0.6807   -0.4541 C   0  0  0  0  0  0  0  0  0  0  0  0
    1.9742   -1.0392   -1.6997 N   0  0  0  0  0  0  0  0  0  0  0  0
    0.6690   -1.2321   -1.9392 C   0  0  0  0  0  0  0  0  0  0  0  0
   -0.3055   -1.0797   -0.9762 C   0  0  0  0  0  0  0  0  0  0  0  0
   -1.6457   -1.2691   -1.1888 C   0  0  0  0  0  0  0  0  0  0  0  0
   -2.5588   -1.0942   -0.1626 C   0  0  0  0  0  0  0  0  0  0  0  0
   -3.8922   -1.3054   -0.4619 O   0  0  0  0  0  0  0  0  0  0  0  0
   -4.7503   -0.2147   -0.2758 C   0  0  0  0  0  0  0  0  0  0  0  0
   -5.7769   -0.4042    0.6272 C   0  0  0  0  0  0  0  0  0  0  0  0
   -6.6496    0.6492    0.8420 C   0  0  0  0  0  0  0  0  0  0  0  0
   -6.5253    1.8487    0.1971 C   0  0  0  0  0  0  0  0  0  0  0  0
   -7.4111    2.8377    0.4517 F   0  0  0  0  0  0  0  0  0  0  0  0
   -5.4837    2.0272   -0.7126 C   0  0  0  0  0  0  0  0  0  0  0  0
   -4.6185    0.9739   -0.9216 C   0  0  0  0  0  0  0  0  0  0  0  0
   -3.6044    1.1342   -1.8012 F   0  0  0  0  0  0  0  0  0  0  0  0
   -2.1128   -0.7242    1.0913 C   0  0  0  0  0  0  0  0  0  0  0  0
   -2.9771   -0.5776    1.9895 O   0  0  0  0  0  0  0  0  0  0  0  0
   -0.7990   -0.5373    1.3045 N   0  0  0  0  0  0  0  0  0  0  0  0
   -0.3727   -0.1513    2.6275 C   0  0  0  0  0  0  0  0  0  0  0  0
    0.0855   -0.7066    0.3109 C   0  0  0  0  0  0  0  0  0  0  0  0
    1.3891   -0.5282    0.4952 N   0  0  0  0  0  0  0  0  0  0  0  0
  1  2  1  0
  2  3  1  0
  3  4  2  0
  3  5  1  0
  5  6  1  0
  6  7  1  0
  7  8  2  0
  8  9  1  0
  9 10  2  0
 10 11  1  0
 10 12  1  0
 12 13  2  0
 15 14  1  6
 15 16  1  0
 16 17  1  0
 17 18  1  0
 18 19  2  0
 19 20  1  0
 20 21  2  0
 15 22  1  0
 22 23  1  0
 23 24  2  0
 24 25  1  0
 25 26  2  0
 26 27  1  0
 27 28  2  0
 28 29  1  0
 29 30  1  0
 30 31  2  0
 31 32  1  0
 32 33  2  0
 33 34  1  0
 33 35  1  0
 35 36  2  0
 36 37  1  0
 28 38  1  0
 38 39  2  0
 38 40  1  0
 40 41  1  0
 40 42  1  0
 42 43  2  0
 13  7  1  0
 21 17  1  0
 43 23  1  0
 42 26  1  0
 36 30  1  0
M  END

