
     RDKit          3D

 44 46  0  0  0  0  0  0  0  0999 V2000
    4.8984   -0.9393   -1.4160 C   0  0  0  0  0  0  0  0  0  0  0  0
    4.9866    0.7070   -1.3282 C   0  0  2  0  0  0  0  0  0  0  0  0
    4.4486    0.8047    0.2211 C   0  0  0  0  0  0  0  0  0  0  0  0
    5.3635    0.0719    1.0284 N   0  0  0  0  0  0  0  0  0  0  0  0
    5.2287   -1.2274    1.2914 N   0  0  0  0  0  0  0  0  0  0  0  0
    6.2170   -1.6651    2.0674 C   0  0  0  0  0  0  0  0  0  0  0  0
    7.0046   -0.5859    2.2983 N   0  0  0  0  0  0  0  0  0  0  0  0
    6.4630    0.4323    1.6618 N   0  0  0  0  0  0  0  0  0  0  0  0
    3.5814    0.9350   -1.9818 N   0  0  0  0  0  0  0  0  0  0  0  0
    2.4553    0.3490   -1.3737 C   0  0  0  0  0  0  0  0  0  0  0  0
    2.5306   -0.3960   -0.2596 N   0  0  0  0  0  0  0  0  0  0  0  0
    1.4393   -0.9326    0.2835 C   0  0  0  0  0  0  0  0  0  0  0  0
    0.1999   -0.7373   -0.2843 C   0  0  0  0  0  0  0  0  0  0  0  0
   -0.9571   -1.2936    0.2732 C   0  0  0  0  0  0  0  0  0  0  0  0
   -2.1811   -1.0788   -0.3199 C   0  0  0  0  0  0  0  0  0  0  0  0
   -3.3377   -1.6131    0.2051 O   0  0  0  0  0  0  0  0  0  0  0  0
   -4.3384   -0.6988    0.5893 C   0  0  0  0  0  0  0  0  0  0  0  0
   -5.5677   -0.7674   -0.0043 C   0  0  0  0  0  0  0  0  0  0  0  0
   -6.5377    0.1334    0.3812 C   0  0  0  0  0  0  0  0  0  0  0  0
   -6.2973    1.0926    1.3429 C   0  0  0  0  0  0  0  0  0  0  0  0
   -7.2556    1.9905    1.7307 F   0  0  0  0  0  0  0  0  0  0  0  0
   -5.0455    1.1156    1.9054 C   0  0  0  0  0  0  0  0  0  0  0  0
   -4.0519    0.2364    1.5495 C   0  0  0  0  0  0  0  0  0  0  0  0
   -2.8139    0.2685    2.1142 F   0  0  0  0  0  0  0  0  0  0  0  0
   -2.2147   -0.3077   -1.4629 C   0  0  0  0  0  0  0  0  0  0  0  0
   -3.3267   -0.1067   -2.0103 O   0  0  0  0  0  0  0  0  0  0  0  0
   -1.0735    0.2163   -1.9764 N   0  0  0  0  0  0  0  0  0  0  0  0
   -1.1922    1.0088   -3.1701 C   0  0  0  0  0  0  0  0  0  0  0  0
    0.1201    0.0284   -1.4298 C   0  0  0  0  0  0  0  0  0  0  0  0
    1.2541    0.5398   -1.9263 N   0  0  0  0  0  0  0  0  0  0  0  0
    5.4729    1.4830    0.4498 N   0  0  0  0  0  0  0  0  0  0  0  0
    4.2608    0.8564    0.0724 C   0  0  0  0  0  0  0  0  0  0  0  0
    3.5615    1.2514   -0.9491 N   0  0  0  0  0  4  0  0  0  0  0  0
    3.7165   -0.2655    0.7961 N   0  0  0  0  0  0  0  0  0  0  0  0
    2.4537   -0.8791    0.3612 C   0  0  0  0  0  0  0  0  0  0  0  0
    1.4131    0.2184    0.4366 C   0  0  0  0  0  0  0  0  0  0  0  0
    0.0515   -0.2275    0.0260 C   0  0  0  0  0  0  0  0  0  0  0  0
   -0.4415   -1.3548    0.9134 C   0  0  0  0  0  0  0  0  0  0  0  0
   -1.7752   -1.7046    0.4178 N   0  0  0  0  0  0  0  0  0  0  0  0
   -2.7590   -0.6566    0.4434 C   0  0  0  0  0  0  0  0  0  0  0  0
   -2.4381    0.4939    0.8819 O   0  0  0  0  0  0  0  0  0  0  0  0
   -4.1279   -0.9220   -0.0372 C   0  0  0  0  0  0  0  0  0  0  0  0
   -4.9563    0.3277    0.0944 C   0  0  0  0  0  0  0  0  0  0  0  0
   -4.4321    1.3792   -0.6467 O   0  0  0  0  0  0  0  0  0  0  0  0
  2  1  1  1
  2  3  1  0
  3  4  1  0
  4  5  1  0
  5  6  2  0
  6  7  1  0
  7  8  2  0
  2  9  1  0
  9 10  1  0
 10 11  2  0
 11 12  1  0
 12 13  2  0
 13 14  1  0
 14 15  2  0
 15 16  1  0
 16 17  1  0
 17 18  2  0
 18 19  1  0
 19 20  2  0
 20 21  1  0
 20 22  1  0
 22 23  2  0
 23 24  1  0
 15 25  1  0
 25 26  2  0
 25 27  1  0
 27 28  1  0
 27 29  1  0
 29 30  2  0
 31 32  1  0
 32 33  2  0
 32 34  1  0
 34 35  1  0
 35 36  1  0
 36 37  1  0
 37 38  1  0
 38 39  1  0
 39 40  1  0
 40 41  2  0
 40 42  1  0
 42 43  1  0
 43 44  1  0
  8  4  1  0
 30 10  1  0
 29 13  1  0
 23 17  1  0
M  CHG  1  33   1
M  END

