
     RDKit          3D

 40 42  0  0  0  0  0  0  0  0999 V2000
   -3.8091   -0.4353    0.8794 C   0  0  0  0  0  0  0  0  0  0  0  0
   -3.0434   -1.2612   -0.1385 C   0  0  0  0  0  0  0  0  0  0  0  0
   -1.6062   -1.1909    0.1083 N   0  0  0  0  0  0  0  0  0  0  0  0
   -0.8616    0.0144    0.0859 C   0  0  0  0  0  0  0  0  0  0  0  0
   -1.5040    1.0812   -0.1688 O   0  0  0  0  0  0  0  0  0  0  0  0
    0.6117    0.0298    0.3476 C   0  0  0  0  0  0  0  0  0  0  0  0
    1.1212    1.4427    0.2379 C   0  0  0  0  0  0  0  0  0  0  0  0
    2.6084    1.3915    0.5148 C   0  0  0  0  0  0  0  0  0  0  0  0
    3.4955    0.3316   -0.6607 S   0  0  0  0  0  0  0  0  0  0  0  0
    2.9874   -1.4039   -0.4322 C   0  0  0  0  0  0  0  0  0  0  0  0
    4.2675    2.0723    0.4858 C   0  0  0  0  0  0  0  0  0  0  0  0
    4.5335    1.3418    1.9120 C   0  0  2  0  0  0  0  0  0  0  0  0
    4.1283   -0.1452    1.4368 C   0  0  0  0  0  0  0  0  0  0  0  0
    5.0214   -0.5145    0.3712 N   0  0  0  0  0  0  0  0  0  0  0  0
    5.0061   -0.3897   -0.9312 N   0  0  0  0  0  0  0  0  0  0  0  0
    6.1018   -0.9080   -1.5134 C   0  0  0  0  0  0  0  0  0  0  0  0
    6.8387   -1.3832   -0.4930 N   0  0  0  0  0  0  0  0  0  0  0  0
    6.1640   -1.1317    0.6181 N   0  0  0  0  0  0  0  0  0  0  0  0
    3.1543    1.6840    2.4869 N   0  0  0  0  0  0  0  0  0  0  0  0
    1.9884    1.2693    1.8113 C   0  0  0  0  0  0  0  0  0  0  0  0
    0.8374    1.6491    2.4466 N   0  0  0  0  0  0  0  0  0  0  0  0
   -0.3826    1.3529    1.9668 C   0  0  0  0  0  0  0  0  0  0  0  0
   -0.4520    0.6398    0.7905 C   0  0  0  0  0  0  0  0  0  0  0  0
   -1.6602    0.2955    0.2311 C   0  0  0  0  0  0  0  0  0  0  0  0
   -1.7512   -0.4263   -0.9594 C   0  0  0  0  0  0  0  0  0  0  0  0
   -2.9642   -0.7817   -1.5369 O   0  0  0  0  0  0  0  0  0  0  0  0
   -4.1337   -0.3945   -0.8894 C   0  0  0  0  0  0  0  0  0  0  0  0
   -4.1179    0.3209    0.2910 C   0  0  0  0  0  0  0  0  0  0  0  0
   -5.2807    0.7022    0.9288 C   0  0  0  0  0  0  0  0  0  0  0  0
   -6.5105    0.3730    0.3945 C   0  0  0  0  0  0  0  0  0  0  0  0
   -7.6635    0.7370    1.0037 F   0  0  0  0  0  0  0  0  0  0  0  0
   -6.4841   -0.3468   -0.7935 C   0  0  0  0  0  0  0  0  0  0  0  0
   -5.3415   -0.7268   -1.4290 C   0  0  0  0  0  0  0  0  0  0  0  0
   -5.3649   -1.4367   -2.6003 F   0  0  0  0  0  0  0  0  0  0  0  0
   -0.5476   -0.7698   -1.5352 C   0  0  0  0  0  0  0  0  0  0  0  0
   -0.5662   -1.4163   -2.6020 O   0  0  0  0  0  0  0  0  0  0  0  0
    0.6620   -0.4421   -1.0032 N   0  0  0  0  0  0  0  0  0  0  0  0
    1.8600   -0.8669   -1.7132 C   0  0  0  0  0  0  0  0  0  0  0  0
    0.7131    0.2627    0.1596 C   0  0  0  0  0  0  0  0  0  0  0  0
    1.9443    0.5745    0.6650 N   0  0  0  0  0  0  0  0  0  0  0  0
  1  2  1  0
  2  3  1  0
  3  4  1  0
  4  5  2  0
  4  6  1  0
  6  7  1  0
  7  8  1  0
  8  9  1  0
  9 10  1  0
 12 11  1  6
 12 13  1  0
 13 14  1  0
 14 15  1  0
 15 16  2  0
 16 17  1  0
 17 18  2  0
 12 19  1  0
 19 20  1  0
 20 21  2  0
 21 22  1  0
 22 23  2  0
 23 24  1  0
 24 25  2  0
 25 26  1  0
 26 27  1  0
 27 28  2  0
 28 29  1  0
 29 30  2  0
 30 31  1  0
 30 32  1  0
 32 33  2  0
 33 34  1  0
 25 35  1  0
 35 36  2  0
 35 37  1  0
 37 38  1  0
 37 39  1  0
 39 40  2  0
 18 14  1  0
 40 20  1  0
 39 23  1  0
 33 27  1  0
M  END

