
     RDKit          3D

 42 44  0  0  0  0  0  0  0  0999 V2000
   -3.4581    0.2334   -1.8810 C   0  0  0  0  0  0  0  0  0  0  0  0
   -2.4274    0.2509   -0.8038 C   0  0  0  0  0  0  0  0  0  0  0  0
   -2.2842    1.5882   -0.1310 C   0  0  0  0  0  0  0  0  0  0  0  0
   -2.5416   -0.8870    0.1706 C   0  0  0  0  0  0  0  0  0  0  0  0
   -1.4444   -0.7426    1.1962 C   0  0  0  0  0  0  0  0  0  0  0  0
   -0.1361   -0.7848    0.5031 C   0  0  0  0  0  0  0  0  0  0  0  0
   -0.0067   -0.9198   -0.7330 O   0  0  0  0  0  0  0  0  0  0  0  0
    1.0363   -0.6646    1.2941 N   0  0  0  0  0  0  0  0  0  0  0  0
    2.3731   -0.6895    0.7491 C   0  0  0  0  0  0  0  0  0  0  0  0
    2.5966    0.4286   -0.2435 C   0  0  0  0  0  0  0  0  0  0  0  0
    3.9706    0.4245   -0.8209 C   0  0  0  0  0  0  0  0  0  0  0  0
    2.3220    1.7626    0.3921 C   0  0  0  0  0  0  0  0  0  0  0  0
   -3.5269    1.7102    2.4367 C   0  0  0  0  0  0  0  0  0  0  0  0
   -4.5791    1.1482    1.2717 C   0  0  2  0  0  0  0  0  0  0  0  0
   -5.4072    0.2129    2.3656 C   0  0  0  0  0  0  0  0  0  0  0  0
   -6.4194   -0.3983    1.5329 N   0  0  0  0  0  0  0  0  0  0  0  0
   -6.4157   -1.5126    0.8540 N   0  0  0  0  0  0  0  0  0  0  0  0
   -7.5857   -1.6649    0.2299 C   0  0  0  0  0  0  0  0  0  0  0  0
   -8.3312   -0.5899    0.5482 N   0  0  0  0  0  0  0  0  0  0  0  0
   -7.6062    0.1536    1.3314 N   0  0  0  0  0  0  0  0  0  0  0  0
   -3.6090   -0.0420    0.8659 N   0  0  0  0  0  0  0  0  0  0  0  0
   -2.3482    0.4135    0.4064 C   0  0  0  0  0  0  0  0  0  0  0  0
   -1.9974    1.7139    0.3184 N   0  0  0  0  0  0  0  0  0  0  0  0
   -0.8088    2.1372   -0.1149 C   0  0  0  0  0  0  0  0  0  0  0  0
    0.1151    1.1749   -0.4955 C   0  0  0  0  0  0  0  0  0  0  0  0
    1.3661    1.4983   -0.9557 C   0  0  0  0  0  0  0  0  0  0  0  0
    2.2656    0.5005   -1.3284 C   0  0  0  0  0  0  0  0  0  0  0  0
    3.5035    0.8906   -1.7814 O   0  0  0  0  0  0  0  0  0  0  0  0
    4.7058    0.5495   -1.2091 C   0  0  0  0  0  0  0  0  0  0  0  0
    5.6048   -0.1541   -1.9981 C   0  0  0  0  0  0  0  0  0  0  0  0
    6.8112   -0.5039   -1.4446 C   0  0  0  0  0  0  0  0  0  0  0  0
    7.1027   -0.1571   -0.1405 C   0  0  0  0  0  0  0  0  0  0  0  0
    8.3168   -0.5376    0.3395 F   0  0  0  0  0  0  0  0  0  0  0  0
    6.2041    0.5405    0.6325 C   0  0  0  0  0  0  0  0  0  0  0  0
    4.9999    0.8922    0.0869 C   0  0  0  0  0  0  0  0  0  0  0  0
    4.0485    1.5857    0.7831 F   0  0  0  0  0  0  0  0  0  0  0  0
    1.8339   -0.7897   -1.2096 C   0  0  0  0  0  0  0  0  0  0  0  0
    2.6218   -1.7182   -1.5378 O   0  0  0  0  0  0  0  0  0  0  0  0
    0.6179   -1.1175   -0.7627 N   0  0  0  0  0  0  0  0  0  0  0  0
    0.1923   -2.5177   -0.6499 C   0  0  0  0  0  0  0  0  0  0  0  0
   -0.2274   -0.1579   -0.4118 C   0  0  0  0  0  0  0  0  0  0  0  0
   -1.4476   -0.4871    0.0366 N   0  0  0  0  0  0  0  0  0  0  0  0
  1  2  1  0
  2  3  1  0
  2  4  1  0
  4  5  1  0
  5  6  1  0
  6  7  2  0
  6  8  1  0
  8  9  1  0
  9 10  1  0
 10 11  1  0
 10 12  1  0
 14 13  1  1
 14 15  1  0
 15 16  1  0
 16 17  1  0
 17 18  2  0
 18 19  1  0
 19 20  2  0
 14 21  1  0
 21 22  1  0
 22 23  2  0
 23 24  1  0
 24 25  2  0
 25 26  1  0
 26 27  2  0
 27 28  1  0
 28 29  1  0
 29 30  2  0
 30 31  1  0
 31 32  2  0
 32 33  1  0
 32 34  1  0
 34 35  2  0
 35 36  1  0
 27 37  1  0
 37 38  2  0
 37 39  1  0
 39 40  1  0
 39 41  1  0
 41 42  2  0
 20 16  1  0
 42 22  1  0
 41 25  1  0
 35 29  1  0
M  END

