
     RDKit          3D

 42 45  0  0  0  0  0  0  0  0999 V2000
   -5.1154    0.0621    4.1823 C   0  0  0  0  0  0  0  0  0  0  0  0
   -4.2252    0.4039    2.7819 C   0  0  2  0  0  0  0  0  0  0  0  0
   -5.4424   -0.2261    1.8532 C   0  0  0  0  0  0  0  0  0  0  0  0
   -5.0160   -0.1000    0.4917 N   0  0  0  0  0  0  0  0  0  0  0  0
   -5.1866    0.9283   -0.3452 N   0  0  0  0  0  0  0  0  0  0  0  0
   -4.6426    0.5667   -1.5144 C   0  0  0  0  0  0  0  0  0  0  0  0
   -4.1471   -0.6606   -1.3981 N   0  0  0  0  0  0  0  0  0  0  0  0
   -4.3838   -1.0469   -0.1742 N   0  0  0  0  0  0  0  0  0  0  0  0
   -3.4478   -0.9656    2.8809 N   0  0  0  0  0  0  0  0  0  0  0  0
   -2.2854   -1.0694    2.0672 C   0  0  0  0  0  0  0  0  0  0  0  0
   -1.6335   -2.2611    2.1457 N   0  0  0  0  0  0  0  0  0  0  0  0
   -0.5065   -2.4809    1.4436 C   0  0  0  0  0  0  0  0  0  0  0  0
   -0.0364   -1.4594    0.6440 C   0  0  0  0  0  0  0  0  0  0  0  0
    1.1115   -1.6044   -0.1071 C   0  0  0  0  0  0  0  0  0  0  0  0
    1.5952   -0.5791   -0.9180 C   0  0  0  0  0  0  0  0  0  0  0  0
    2.7511   -0.8277   -1.6276 O   0  0  0  0  0  0  0  0  0  0  0  0
    3.8631   -0.0104   -1.3950 C   0  0  0  0  0  0  0  0  0  0  0  0
    3.8160    1.0209   -0.4816 C   0  0  0  0  0  0  0  0  0  0  0  0
    4.9373    1.8012   -0.2851 C   0  0  0  0  0  0  0  0  0  0  0  0
    6.0856    1.5359   -1.0059 C   0  0  0  0  0  0  0  0  0  0  0  0
    7.2034    2.3076   -0.8154 F   0  0  0  0  0  0  0  0  0  0  0  0
    6.1202    0.5009   -1.9172 C   0  0  0  0  0  0  0  0  0  0  0  0
    5.0004   -0.3036   -2.1353 C   0  0  0  0  0  0  0  0  0  0  0  0
    5.0186   -1.3252   -3.0280 F   0  0  0  0  0  0  0  0  0  0  0  0
    0.9033    0.5977   -0.9613 C   0  0  0  0  0  0  0  0  0  0  0  0
    1.3161    1.5232   -1.6763 O   0  0  0  0  0  0  0  0  0  0  0  0
   -0.2204    0.7605   -0.2356 N   0  0  0  0  0  0  0  0  0  0  0  0
   -0.9297    2.0277   -0.3075 C   0  0  0  0  0  0  0  0  0  0  0  0
   -0.6908   -0.2411    0.5552 C   0  0  0  0  0  0  0  0  0  0  0  0
   -1.8120   -0.0870    1.2831 N   0  0  0  0  0  0  0  0  0  0  0  0
    3.1608    1.3470   -0.6699 O   0  0  0  0  0  1  0  0  0  0  0  0
    3.3064   -0.0003   -0.4658 C   0  0  0  0  0  0  0  0  0  0  0  0
    4.4371   -0.5672   -0.4625 O   0  0  0  0  0  0  0  0  0  0  0  0
    2.1174   -0.8573   -0.2371 C   0  0  0  0  0  0  0  0  0  0  0  0
    0.8924    0.0142   -0.2820 C   0  0  0  0  0  0  0  0  0  0  0  0
   -0.3558   -0.7094   -0.0700 C   0  0  0  0  0  0  0  0  0  0  0  0
   -0.2825   -1.9601    0.1244 O   0  0  0  0  0  0  0  0  0  0  0  0
   -1.5984   -0.0338   -0.0823 N   0  0  0  0  0  0  0  0  0  0  0  0
   -2.9233   -0.6247    0.1144 C   0  0  0  0  0  0  0  0  0  0  0  0
   -3.8892    0.4567   -0.2607 C   0  0  0  0  0  0  0  0  0  0  0  0
   -3.1204    1.5421   -0.9607 C   0  0  0  0  0  0  0  0  0  0  0  0
   -1.7445    1.3927   -0.2991 C   0  0  0  0  0  0  0  0  0  0  0  0
  2  1  1  1
  2  3  1  0
  3  4  1  0
  4  5  1  0
  5  6  2  0
  6  7  1  0
  7  8  2  0
  2  9  1  0
  9 10  1  0
 10 11  2  0
 11 12  1  0
 12 13  2  0
 13 14  1  0
 14 15  2  0
 15 16  1  0
 16 17  1  0
 17 18  2  0
 18 19  1  0
 19 20  2  0
 20 21  1  0
 20 22  1  0
 22 23  2  0
 23 24  1  0
 15 25  1  0
 25 26  2  0
 25 27  1  0
 27 28  1  0
 27 29  1  0
 29 30  2  0
 31 32  1  0
 32 33  2  0
 32 34  1  0
 34 35  1  0
 35 36  1  0
 36 37  2  0
 36 38  1  0
 38 39  1  0
 39 40  1  0
 40 41  1  0
 41 42  1  0
  8  4  1  0
 30 10  1  0
 42 38  1  0
 29 13  1  0
 23 17  1  0
M  RAD  1  31   2
M  END

