
     RDKit          3D

 46 48  0  0  0  0  0  0  0  0999 V2000
    4.2858    2.1959   -1.1185 C   0  0  0  0  0  0  0  0  0  0  0  0
    3.9846    1.8848    0.3312 C   0  0  0  0  0  0  0  0  0  0  0  0
    5.1782    1.2259    1.0140 C   0  0  0  0  0  0  0  0  0  0  0  0
    2.7502    1.0173    0.4483 C   0  0  0  0  0  0  0  0  0  0  0  0
    3.0346   -0.2641   -0.3109 C   0  0  0  0  0  0  0  0  0  0  0  0
    1.8619   -1.1017   -0.2063 N   0  0  0  0  0  0  0  0  0  0  0  0
    0.6265   -0.6242   -0.7106 C   0  0  0  0  0  0  0  0  0  0  0  0
    0.5920    0.5133   -1.2328 O   0  0  0  0  0  0  0  0  0  0  0  0
   -0.5594   -1.5021   -0.5909 C   0  0  0  0  0  0  0  0  0  0  0  0
   -1.7337   -0.7365   -1.2113 C   0  0  0  0  0  0  0  0  0  0  0  0
   -2.9955   -1.4899   -1.1656 C   0  0  0  0  0  0  0  0  0  0  0  0
   -3.5769   -1.8334    0.1188 C   0  0  0  0  0  0  0  0  0  0  0  0
   -4.0393   -0.8687    1.0125 N   0  0  0  0  0  0  0  0  0  0  0  0
   -3.3315    0.1530    1.6138 C   0  0  0  0  0  0  0  0  0  0  0  0
   -3.9860    1.0672    2.5229 N   0  0  0  0  0  0  0  0  0  0  0  0
   -2.0915    0.3632    1.4224 N   0  0  0  0  0  4  0  0  0  0  0  0
    3.1579   -2.3195    2.2196 C   0  0  0  0  0  0  0  0  0  0  0  0
    3.8494   -2.8788    0.8537 C   0  0  2  0  0  0  0  0  0  0  0  0
    5.3703   -2.5970    1.3483 C   0  0  0  0  0  0  0  0  0  0  0  0
    5.5158   -1.1878    1.6185 N   0  0  0  0  0  0  0  0  0  0  0  0
    5.9016   -0.3596    0.6663 N   0  0  0  0  0  0  0  0  0  0  0  0
    5.9555    0.8677    1.1712 C   0  0  0  0  0  0  0  0  0  0  0  0
    5.5933    0.7681    2.4539 N   0  0  0  0  0  0  0  0  0  0  0  0
    5.3345   -0.4879    2.6908 N   0  0  0  0  0  0  0  0  0  0  0  0
    3.6973   -1.5472    0.0618 N   0  0  0  0  0  0  0  0  0  0  0  0
    2.3252   -1.1064   -0.0906 C   0  0  0  0  0  0  0  0  0  0  0  0
    1.3030   -1.8094    0.4189 N   0  0  0  0  0  0  0  0  0  0  0  0
    0.0140   -1.4983    0.3380 C   0  0  0  0  0  0  0  0  0  0  0  0
   -0.3138   -0.3271   -0.3424 C   0  0  0  0  0  0  0  0  0  0  0  0
   -1.5950    0.1016   -0.4951 C   0  0  0  0  0  0  0  0  0  0  0  0
   -1.9037    1.2431   -1.1591 C   0  0  0  0  0  0  0  0  0  0  0  0
   -3.2265    1.6521   -1.2964 O   0  0  0  0  0  0  0  0  0  0  0  0
   -4.3085    1.0034   -0.8146 C   0  0  0  0  0  0  0  0  0  0  0  0
   -5.2996    0.5541   -1.6581 C   0  0  0  0  0  0  0  0  0  0  0  0
   -6.4133   -0.1108   -1.1876 C   0  0  0  0  0  0  0  0  0  0  0  0
   -6.5578   -0.3440    0.1761 C   0  0  0  0  0  0  0  0  0  0  0  0
   -7.6204   -0.9852    0.6858 F   0  0  0  0  0  0  0  0  0  0  0  0
   -5.5463    0.1154    1.0290 C   0  0  0  0  0  0  0  0  0  0  0  0
   -4.4479    0.7753    0.5274 C   0  0  0  0  0  0  0  0  0  0  0  0
   -3.5138    1.1930    1.3733 F   0  0  0  0  0  0  0  0  0  0  0  0
   -0.8494    1.9766   -1.6898 C   0  0  0  0  0  0  0  0  0  0  0  0
   -1.1168    3.0389   -2.3094 O   0  0  0  0  0  0  0  0  0  0  0  0
    0.4191    1.5556   -1.5407 N   0  0  0  0  0  0  0  0  0  0  0  0
    1.5457    2.2921   -2.0791 C   0  0  0  0  0  0  0  0  0  0  0  0
    0.7131    0.4051   -0.8700 C   0  0  0  0  0  0  0  0  0  0  0  0
    2.0171    0.0169   -0.7437 N   0  0  0  0  0  0  0  0  0  0  0  0
  1  2  1  0
  2  3  1  0
  2  4  1  0
  4  5  1  0
  5  6  1  0
  6  7  1  0
  7  8  2  0
  7  9  1  0
  9 10  1  0
 10 11  1  0
 11 12  1  0
 12 13  1  0
 13 14  1  0
 14 15  1  0
 14 16  2  0
 18 17  1  1
 18 19  1  0
 19 20  1  0
 20 21  1  0
 21 22  2  0
 22 23  1  0
 23 24  2  0
 18 25  1  0
 25 26  1  0
 26 27  2  0
 27 28  1  0
 28 29  2  0
 29 30  1  0
 30 31  2  0
 31 32  1  0
 32 33  1  0
 33 34  2  0
 34 35  1  0
 35 36  2  0
 36 37  1  0
 36 38  1  0
 38 39  2  0
 39 40  1  0
 31 41  1  0
 41 42  2  0
 41 43  1  0
 43 44  1  0
 43 45  1  0
 45 46  2  0
 24 20  1  0
 46 26  1  0
 45 29  1  0
 39 33  1  0
M  CHG  1  16   1
M  END

