
     RDKit          3D

 37 39  0  0  0  0  0  0  0  0999 V2000
    2.5326    0.2947    0.3457 C   0  0  0  0  0  0  0  0  0  0  0  0
    1.2218    0.0883   -0.3047 C   0  0  0  0  0  0  0  0  0  0  0  0
    0.8592    0.6268   -1.3693 O   0  0  0  0  0  0  0  0  0  0  0  0
    0.2941   -0.7906    0.3234 N   0  0  0  0  0  0  0  0  0  0  0  0
   -0.9974   -1.0639   -0.2136 C   0  0  0  0  0  0  0  0  0  0  0  0
   -1.8722    0.1457   -0.3585 C   0  0  0  0  0  0  0  0  0  0  0  0
   -2.0380    0.6991    0.9145 O   0  0  0  0  0  0  0  0  0  0  0  0
   -5.7132    2.5322   -0.2044 C   0  0  0  0  0  0  0  0  0  0  0  0
   -4.1999    2.0382   -0.6693 C   0  0  2  0  0  0  0  0  0  0  0  0
   -4.7289    0.6294   -1.3425 C   0  0  0  0  0  0  0  0  0  0  0  0
   -5.3744   -0.1387   -0.3449 N   0  0  0  0  0  0  0  0  0  0  0  0
   -4.8912   -1.0532    0.5006 N   0  0  0  0  0  0  0  0  0  0  0  0
   -5.8692   -1.5314    1.2792 C   0  0  0  0  0  0  0  0  0  0  0  0
   -6.9819   -0.9042    0.9129 N   0  0  0  0  0  0  0  0  0  0  0  0
   -6.6646   -0.0810   -0.0539 N   0  0  0  0  0  0  0  0  0  0  0  0
   -3.8620    1.3917    0.7314 N   0  0  0  0  0  0  0  0  0  0  0  0
   -2.5645    0.8074    0.7835 C   0  0  0  0  0  0  0  0  0  0  0  0
   -2.2119    0.2382    1.9489 N   0  0  0  0  0  0  0  0  0  0  0  0
   -1.0124   -0.3451    2.1182 C   0  0  0  0  0  0  0  0  0  0  0  0
   -0.1384   -0.3467    1.0532 C   0  0  0  0  0  0  0  0  0  0  0  0
    1.1093   -0.9256    1.1510 C   0  0  0  0  0  0  0  0  0  0  0  0
    1.9725   -0.9131    0.0601 C   0  0  0  0  0  0  0  0  0  0  0  0
    3.2232   -1.4885    0.1442 O   0  0  0  0  0  0  0  0  0  0  0  0
    4.4112   -0.8245   -0.0384 C   0  0  0  0  0  0  0  0  0  0  0  0
    5.2345   -1.2744   -1.0690 C   0  0  0  0  0  0  0  0  0  0  0  0
    6.4490   -0.6532   -1.3128 C   0  0  0  0  0  0  0  0  0  0  0  0
    6.8472    0.4141   -0.5348 C   0  0  0  0  0  0  0  0  0  0  0  0
    8.0253    1.0196   -0.7684 F   0  0  0  0  0  0  0  0  0  0  0  0
    6.0434    0.8685    0.4864 C   0  0  0  0  0  0  0  0  0  0  0  0
    4.8362    0.2305    0.7084 C   0  0  0  0  0  0  0  0  0  0  0  0
    4.0140    0.6633    1.7211 F   0  0  0  0  0  0  0  0  0  0  0  0
    1.5701   -0.3182   -1.1169 C   0  0  0  0  0  0  0  0  0  0  0  0
    2.3733   -0.3266   -2.0760 O   0  0  0  0  0  0  0  0  0  0  0  0
    0.3511    0.2463   -1.2094 N   0  0  0  0  0  0  0  0  0  0  0  0
   -0.0450    0.8643   -2.4586 C   0  0  0  0  0  0  0  0  0  0  0  0
   -0.4935    0.2354   -0.1453 C   0  0  0  0  0  0  0  0  0  0  0  0
   -1.7094    0.8044   -0.2543 N   0  0  0  0  0  0  0  0  0  0  0  0
  1  2  1  0
  2  3  2  0
  2  4  1  0
  4  5  1  0
  5  6  1  0
  6  7  1  0
  9  8  1  1
  9 10  1  0
 10 11  1  0
 11 12  1  0
 12 13  2  0
 13 14  1  0
 14 15  2  0
  9 16  1  0
 16 17  1  0
 17 18  2  0
 18 19  1  0
 19 20  2  0
 20 21  1  0
 21 22  2  0
 22 23  1  0
 23 24  1  0
 24 25  2  0
 25 26  1  0
 26 27  2  0
 27 28  1  0
 27 29  1  0
 29 30  2  0
 30 31  1  0
 22 32  1  0
 32 33  2  0
 32 34  1  0
 34 35  1  0
 34 36  1  0
 36 37  2  0
 15 11  1  0
 37 17  1  0
 36 20  1  0
 30 24  1  0
M  END

