
     RDKit          3D

 47 50  0  0  0  0  0  0  0  0999 V2000
    3.8342    1.2024   -1.7024 C   0  0  0  0  0  0  0  0  0  0  0  0
    4.4420    0.2433   -0.5028 C   0  0  2  0  0  0  0  0  0  0  0  0
    5.7407   -0.1822   -1.4010 C   0  0  0  0  0  0  0  0  0  0  0  0
    6.5010   -1.0794   -0.5451 N   0  0  0  0  0  0  0  0  0  0  0  0
    6.3930   -2.3964   -0.4503 N   0  0  0  0  0  0  0  0  0  0  0  0
    7.2756   -2.8355    0.4531 C   0  0  0  0  0  0  0  0  0  0  0  0
    7.9197   -1.7469    0.9012 N   0  0  0  0  0  0  0  0  0  0  0  0
    7.4339   -0.7129    0.2854 N   0  0  0  0  0  0  0  0  0  0  0  0
    3.6301   -1.0202   -0.9165 N   0  0  0  0  0  0  0  0  0  0  0  0
    2.2346   -0.9404   -0.9118 C   0  0  0  0  0  0  0  0  0  0  0  0
    1.5683   -2.0506   -1.2747 N   0  0  0  0  0  0  0  0  0  0  0  0
    0.2234   -2.1123   -1.3143 C   0  0  0  0  0  0  0  0  0  0  0  0
   -0.5028   -1.0006   -0.9716 C   0  0  0  0  0  0  0  0  0  0  0  0
   -1.8854   -0.9706   -0.9825 C   0  0  0  0  0  0  0  0  0  0  0  0
   -2.5345    0.2011   -0.6196 C   0  0  0  0  0  0  0  0  0  0  0  0
   -3.9298    0.2973   -0.6098 O   0  0  0  0  0  0  0  0  0  0  0  0
   -4.6195    0.5967    0.5558 C   0  0  0  0  0  0  0  0  0  0  0  0
   -3.9586    0.8146    1.7712 C   0  0  0  0  0  0  0  0  0  0  0  0
   -4.6749    1.1109    2.9137 C   0  0  0  0  0  0  0  0  0  0  0  0
   -6.0509    1.1861    2.8263 C   0  0  0  0  0  0  0  0  0  0  0  0
   -6.7736    1.4766    3.9399 F   0  0  0  0  0  0  0  0  0  0  0  0
   -6.7276    0.9752    1.6381 C   0  0  0  0  0  0  0  0  0  0  0  0
   -5.9918    0.6772    0.4939 C   0  0  0  0  0  0  0  0  0  0  0  0
   -6.5920    0.4599   -0.6995 F   0  0  0  0  0  0  0  0  0  0  0  0
   -1.8476    1.3379   -0.2480 C   0  0  0  0  0  0  0  0  0  0  0  0
   -2.4665    2.4065    0.0824 O   0  0  0  0  0  0  0  0  0  0  0  0
   -0.5035    1.2803   -0.2464 N   0  0  0  0  0  0  0  0  0  0  0  0
    0.2149    2.4943    0.1501 C   0  0  0  0  0  0  0  0  0  0  0  0
    0.1482    0.1538   -0.5949 C   0  0  0  0  0  0  0  0  0  0  0  0
    1.4993    0.1337   -0.5813 N   0  0  0  0  0  0  0  0  0  0  0  0
    6.6846   -0.9603   -0.0949 N   0  0  0  0  0  0  0  0  0  0  0  0
    5.2647   -0.9625   -0.2815 C   0  0  0  0  0  0  0  0  0  0  0  0
    4.5282   -1.7712    0.3658 O   0  0  0  0  0  0  0  0  0  0  0  0
    4.7035    0.0096   -1.2515 C   0  0  0  0  0  0  0  0  0  0  0  0
    3.2008   -0.1790   -1.2772 C   0  0  0  0  0  0  0  0  0  0  0  0
    2.6736    0.0748    0.0970 C   0  0  0  0  0  0  0  0  0  0  0  0
    1.2004   -0.0877    0.1685 C   0  0  0  0  0  0  0  0  0  0  0  0
    0.5661   -0.4018   -0.8558 O   0  0  0  0  0  0  0  0  0  0  0  0
    0.5141    0.1123    1.3934 N   0  0  0  0  0  0  0  0  0  0  0  0
   -0.9307   -0.0450    1.4727 C   0  0  0  0  0  0  0  0  0  0  0  0
   -1.6097    0.9428    0.5196 C   0  0  0  0  0  0  0  0  0  0  0  0
   -3.0718    0.7575    0.6244 C   0  0  0  0  0  0  0  0  0  0  0  0
   -3.8492    1.4558    1.5261 C   0  0  0  0  0  0  0  0  0  0  0  0
   -5.2130    1.2332    1.5711 C   0  0  0  0  0  0  0  0  0  0  0  0
   -5.8559    0.3326    0.7475 C   0  0  0  0  0  0  0  0  0  0  0  0
   -5.0760   -0.3628   -0.1516 C   0  0  0  0  0  0  0  0  0  0  0  0
   -3.7297   -0.1484   -0.2016 C   0  0  0  0  0  0  0  0  0  0  0  0
  2  1  1  6
  2  3  1  0
  3  4  1  0
  4  5  1  0
  5  6  2  0
  6  7  1  0
  7  8  2  0
  2  9  1  0
  9 10  1  0
 10 11  2  0
 11 12  1  0
 12 13  2  0
 13 14  1  0
 14 15  2  0
 15 16  1  0
 16 17  1  0
 17 18  2  0
 18 19  1  0
 19 20  2  0
 20 21  1  0
 20 22  1  0
 22 23  2  0
 23 24  1  0
 15 25  1  0
 25 26  2  0
 25 27  1  0
 27 28  1  0
 27 29  1  0
 29 30  2  0
 31 32  1  0
 32 33  2  0
 32 34  1  0
 34 35  1  0
 35 36  1  0
 36 37  1  0
 37 38  2  0
 37 39  1  0
 39 40  1  0
 40 41  1  0
 41 42  1  0
 42 43  2  0
 43 44  1  0
 44 45  2  0
 45 46  1  0
 46 47  2  0
  8  4  1  0
 30 10  1  0
 47 42  1  0
 29 13  1  0
 23 17  1  0
M  END

