
     RDKit          3D

 44 46  0  0  0  0  0  0  0  0999 V2000
    6.0053    1.5182   -0.2177 C   0  0  0  0  0  0  0  0  0  0  0  0
    4.2655    1.9954   -0.2141 S   0  0  0  0  0  0  0  0  0  0  0  0
    3.2526    0.9497    0.8421 C   0  0  0  0  0  0  0  0  0  0  0  0
    3.2019   -0.4622    0.2850 C   0  0  0  0  0  0  0  0  0  0  0  0
    2.3569   -1.3657    1.1515 C   0  0  0  0  0  0  0  0  0  0  0  0
    0.9916   -0.8848    1.2464 N   0  0  0  0  0  0  0  0  0  0  0  0
    0.1809   -0.7410    0.0819 C   0  0  0  0  0  0  0  0  0  0  0  0
    0.6743   -1.0395   -1.0186 O   0  0  0  0  0  0  0  0  0  0  0  0
   -1.2161   -0.2492    0.1648 C   0  0  0  0  0  0  0  0  0  0  0  0
   -1.7789   -0.2144   -1.2359 C   0  0  0  0  0  0  0  0  0  0  0  0
   -3.2101    0.2947   -1.1194 C   0  0  0  0  0  0  0  0  0  0  0  0
   -3.9444   -0.6893   -0.2321 C   0  0  0  0  0  0  0  0  0  0  0  0
   -5.3668   -0.2191   -0.0900 C   0  0  0  0  0  0  0  0  0  0  0  0
   -5.4127    1.1073    0.5124 N   0  0  0  0  0  4  0  0  0  0  0  0
    4.6477    0.7435   -0.2012 C   0  0  0  0  0  0  0  0  0  0  0  0
    4.7194   -0.5938    0.7848 C   0  0  2  0  0  0  0  0  0  0  0  0
    5.8147   -1.3557   -0.2174 C   0  0  0  0  0  0  0  0  0  0  0  0
    6.9383   -0.4427   -0.2277 N   0  0  0  0  0  0  0  0  0  0  0  0
    7.0899    0.5378   -1.0864 N   0  0  0  0  0  0  0  0  0  0  0  0
    8.2396    1.1518   -0.7769 C   0  0  0  0  0  0  0  0  0  0  0  0
    8.7556    0.5085    0.2808 N   0  0  0  0  0  0  0  0  0  0  0  0
    7.9326   -0.4843    0.6124 N   0  0  0  0  0  0  0  0  0  0  0  0
    3.4793   -1.2910    0.0789 N   0  0  0  0  0  0  0  0  0  0  0  0
    2.2820   -0.5184    0.1608 C   0  0  0  0  0  0  0  0  0  0  0  0
    2.1888    0.6614    0.7584 N   0  0  0  0  0  0  0  0  0  0  0  0
    0.9988    1.3315    0.7882 C   0  0  0  0  0  0  0  0  0  0  0  0
   -0.1072    0.7943    0.2031 C   0  0  0  0  0  0  0  0  0  0  0  0
   -1.3539    1.4163    0.1921 C   0  0  0  0  0  0  0  0  0  0  0  0
   -2.4110    0.7908   -0.4263 C   0  0  0  0  0  0  0  0  0  0  0  0
   -3.6732    1.3695   -0.4645 O   0  0  0  0  0  0  0  0  0  0  0  0
   -4.7377    0.7042    0.1055 C   0  0  0  0  0  0  0  0  0  0  0  0
   -4.6339   -0.5231    0.7246 C   0  0  0  0  0  0  0  0  0  0  0  0
   -5.7301   -1.1491    1.2806 C   0  0  0  0  0  0  0  0  0  0  0  0
   -6.9814   -0.5703    1.2401 C   0  0  0  0  0  0  0  0  0  0  0  0
   -8.0707   -1.1948    1.7939 F   0  0  0  0  0  0  0  0  0  0  0  0
   -7.1006    0.6577    0.6239 C   0  0  0  0  0  0  0  0  0  0  0  0
   -5.9948    1.2759    0.0698 C   0  0  0  0  0  0  0  0  0  0  0  0
   -6.1414    2.4923   -0.5346 F   0  0  0  0  0  0  0  0  0  0  0  0
   -2.2430   -0.4332   -1.0269 C   0  0  0  0  0  0  0  0  0  0  0  0
   -3.1871   -1.0359   -1.6024 O   0  0  0  0  0  0  0  0  0  0  0  0
   -1.0469   -1.0217   -1.0119 N   0  0  0  0  0  0  0  0  0  0  0  0
   -0.8755   -2.3277   -1.6549 C   0  0  0  0  0  0  0  0  0  0  0  0
    0.0008   -0.4302   -0.4141 C   0  0  0  0  0  0  0  0  0  0  0  0
    1.2007   -1.0636   -0.4217 N   0  0  0  0  0  0  0  0  0  0  0  0
  1  2  1  0
  2  3  1  0
  3  4  1  0
  4  5  1  0
  5  6  1  0
  6  7  1  0
  7  8  2  0
  7  9  1  0
  9 10  1  0
 10 11  1  0
 11 12  1  0
 12 13  1  0
 13 14  1  0
 16 15  1  6
 16 17  1  0
 17 18  1  0
 18 19  1  0
 19 20  2  0
 20 21  1  0
 21 22  2  0
 16 23  1  0
 23 24  1  0
 24 25  2  0
 25 26  1  0
 26 27  2  0
 27 28  1  0
 28 29  2  0
 29 30  1  0
 30 31  1  0
 31 32  2  0
 32 33  1  0
 33 34  2  0
 34 35  1  0
 34 36  1  0
 36 37  2  0
 37 38  1  0
 29 39  1  0
 39 40  2  0
 39 41  1  0
 41 42  1  0
 41 43  1  0
 43 44  2  0
 22 18  1  0
 44 24  1  0
 43 27  1  0
 37 31  1  0
M  CHG  1  14   1
M  END

