
     RDKit          3D

 47 50  0  0  0  0  0  0  0  0999 V2000
    6.5550    0.4703    0.6169 C   0  0  0  0  0  0  0  0  0  0  0  0
    5.1957    0.5799    1.5662 C   0  0  2  0  0  0  0  0  0  0  0  0
    4.9481   -1.0425    1.7496 C   0  0  0  0  0  0  0  0  0  0  0  0
    4.7565   -1.6651    0.5199 N   0  0  0  0  0  0  0  0  0  0  0  0
    3.6566   -1.9111   -0.2039 N   0  0  0  0  0  0  0  0  0  0  0  0
    3.9829   -2.5486   -1.3417 C   0  0  0  0  0  0  0  0  0  0  0  0
    5.3184   -2.7035   -1.3266 N   0  0  0  0  0  0  0  0  0  0  0  0
    5.7486   -2.1765   -0.2234 N   0  0  0  0  0  0  0  0  0  0  0  0
    4.2229    0.6993    0.3233 N   0  0  0  0  0  0  0  0  0  0  0  0
    2.8590    0.8211    0.7218 C   0  0  0  0  0  0  0  0  0  0  0  0
    2.4288    0.8354    1.9811 N   0  0  0  0  0  0  0  0  0  0  0  0
    1.1272    0.9529    2.2992 C   0  0  0  0  0  0  0  0  0  0  0  0
    0.2091    1.0624    1.2761 C   0  0  0  0  0  0  0  0  0  0  0  0
   -1.1544    1.1872    1.5271 C   0  0  0  0  0  0  0  0  0  0  0  0
   -2.0306    1.2936    0.4665 C   0  0  0  0  0  0  0  0  0  0  0  0
   -3.3973    1.4207    0.6446 O   0  0  0  0  0  0  0  0  0  0  0  0
   -4.2344    0.4228    0.1080 C   0  0  0  0  0  0  0  0  0  0  0  0
   -3.7061   -0.6530   -0.5670 C   0  0  0  0  0  0  0  0  0  0  0  0
   -4.5397   -1.6017   -1.0746 C   0  0  0  0  0  0  0  0  0  0  0  0
   -5.8981   -1.5270   -0.9385 C   0  0  0  0  0  0  0  0  0  0  0  0
   -6.7330   -2.4701   -1.4427 F   0  0  0  0  0  0  0  0  0  0  0  0
   -6.4045   -0.4537   -0.2665 C   0  0  0  0  0  0  0  0  0  0  0  0
   -5.5904    0.5064    0.2491 C   0  0  0  0  0  0  0  0  0  0  0  0
   -6.1062    1.5885    0.9270 F   0  0  0  0  0  0  0  0  0  0  0  0
   -1.5415    1.2745   -0.8209 C   0  0  0  0  0  0  0  0  0  0  0  0
   -2.3243    1.3709   -1.7921 O   0  0  0  0  0  0  0  0  0  0  0  0
   -0.2223    1.1541   -1.0828 N   0  0  0  0  0  0  0  0  0  0  0  0
    0.2731    1.1356   -2.4331 C   0  0  0  0  0  0  0  0  0  0  0  0
    0.6391    1.0493   -0.0325 C   0  0  0  0  0  0  0  0  0  0  0  0
    1.9617    0.9276   -0.2507 N   0  0  0  0  0  0  0  0  0  0  0  0
    4.5144    1.9511   -0.2117 O   0  0  0  0  0  1  0  0  0  0  0  0
    4.1487    0.6681   -0.6450 C   0  0  0  0  0  0  0  0  0  0  0  0
    3.7630    0.4803   -1.8462 O   0  0  0  0  0  0  0  0  0  0  0  0
    4.2177   -0.4345    0.2908 C   0  0  0  0  0  0  0  0  0  0  0  0
    3.1898   -0.6492    1.2972 C   0  0  0  0  0  0  0  0  0  0  0  0
    1.8441   -0.8786    0.8276 C   0  0  0  0  0  0  0  0  0  0  0  0
    1.1338    0.1771    0.0951 C   0  0  0  0  0  0  0  0  0  0  0  0
    1.5297    1.3575   -0.0611 O   0  0  0  0  0  0  0  0  0  0  0  0
   -0.1468   -0.0960   -0.5313 N   0  0  0  0  0  0  0  0  0  0  0  0
   -0.8487    0.9372   -1.2644 C   0  0  0  0  0  0  0  0  0  0  0  0
   -2.1461    0.2949   -1.7702 C   0  0  0  0  0  0  0  0  0  0  0  0
   -2.8658   -0.1311   -0.5205 C   0  0  0  0  0  0  0  0  0  0  0  0
   -2.6602   -1.3744    0.0263 C   0  0  0  0  0  0  0  0  0  0  0  0
   -3.3196   -1.7643    1.1723 C   0  0  0  0  0  0  0  0  0  0  0  0
   -4.2013   -0.9130    1.7952 C   0  0  0  0  0  0  0  0  0  0  0  0
   -4.4053    0.3331    1.2453 C   0  0  0  0  0  0  0  0  0  0  0  0
   -3.7473    0.7243    0.1006 C   0  0  0  0  0  0  0  0  0  0  0  0
  2  1  1  6
  2  3  1  0
  3  4  1  0
  4  5  1  0
  5  6  2  0
  6  7  1  0
  7  8  2  0
  2  9  1  0
  9 10  1  0
 10 11  2  0
 11 12  1  0
 12 13  2  0
 13 14  1  0
 14 15  2  0
 15 16  1  0
 16 17  1  0
 17 18  2  0
 18 19  1  0
 19 20  2  0
 20 21  1  0
 20 22  1  0
 22 23  2  0
 23 24  1  0
 15 25  1  0
 25 26  2  0
 25 27  1  0
 27 28  1  0
 27 29  1  0
 29 30  2  0
 31 32  1  0
 32 33  2  0
 32 34  1  0
 34 35  1  0
 35 36  1  0
 36 37  1  0
 37 38  2  0
 37 39  1  0
 39 40  1  0
 40 41  1  0
 41 42  1  0
 42 43  2  0
 43 44  1  0
 44 45  2  0
 45 46  1  0
 46 47  2  0
  8  4  1  0
 30 10  1  0
 47 42  1  0
 29 13  1  0
 23 17  1  0
M  RAD  1  31   2
M  END

