
     RDKit          3D

 47 50  0  0  0  0  0  0  0  0999 V2000
    4.4509   -1.8792    1.5856 C   0  0  0  0  0  0  0  0  0  0  0  0
    4.9798   -2.1004    0.0252 C   0  0  2  0  0  0  0  0  0  0  0  0
    6.2324   -1.0273    0.0667 C   0  0  0  0  0  0  0  0  0  0  0  0
    5.7810    0.2705    0.3551 N   0  0  0  0  0  0  0  0  0  0  0  0
    5.3835    1.2489   -0.4444 N   0  0  0  0  0  0  0  0  0  0  0  0
    5.0386    2.3206    0.2897 C   0  0  0  0  0  0  0  0  0  0  0  0
    5.2277    1.9976    1.5820 N   0  0  0  0  0  0  0  0  0  0  0  0
    5.6742    0.7578    1.5765 N   0  0  0  0  0  0  0  0  0  0  0  0
    3.9846   -1.0444   -0.6002 N   0  0  0  0  0  0  0  0  0  0  0  0
    2.6223   -1.2840   -0.4216 C   0  0  0  0  0  0  0  0  0  0  0  0
    2.1227   -2.3419    0.2395 N   0  0  0  0  0  0  0  0  0  0  0  0
    0.7730   -2.4819    0.3566 C   0  0  0  0  0  0  0  0  0  0  0  0
   -0.1127   -1.5705   -0.1826 C   0  0  0  0  0  0  0  0  0  0  0  0
   -1.4949   -1.7204   -0.0586 C   0  0  0  0  0  0  0  0  0  0  0  0
   -2.3523   -0.7883   -0.6111 C   0  0  0  0  0  0  0  0  0  0  0  0
   -3.7321   -0.9130   -0.5026 O   0  0  0  0  0  0  0  0  0  0  0  0
   -4.5414    0.0239    0.1069 C   0  0  0  0  0  0  0  0  0  0  0  0
   -5.5195    0.6169   -0.6406 C   0  0  0  0  0  0  0  0  0  0  0  0
   -6.3342    1.5520   -0.0495 C   0  0  0  0  0  0  0  0  0  0  0  0
   -6.1506    1.8671    1.2638 C   0  0  0  0  0  0  0  0  0  0  0  0
   -6.9418    2.7916    1.8831 F   0  0  0  0  0  0  0  0  0  0  0  0
   -5.1600    1.2613    2.0065 C   0  0  0  0  0  0  0  0  0  0  0  0
   -4.3238    0.3139    1.4338 C   0  0  0  0  0  0  0  0  0  0  0  0
   -3.3409   -0.3061    2.1188 F   0  0  0  0  0  0  0  0  0  0  0  0
   -1.7488    0.2633   -1.2707 C   0  0  0  0  0  0  0  0  0  0  0  0
   -2.5073    1.1230   -1.7810 O   0  0  0  0  0  0  0  0  0  0  0  0
   -0.4057    0.4027   -1.3873 N   0  0  0  0  0  0  0  0  0  0  0  0
    0.1894    1.5334   -2.0953 C   0  0  0  0  0  0  0  0  0  0  0  0
    0.4363   -0.4974   -0.8541 C   0  0  0  0  0  0  0  0  0  0  0  0
    1.7695   -0.3899   -0.9509 N   0  0  0  0  0  0  0  0  0  0  0  0
   -6.3548    0.8481    0.6443 O   0  0  0  0  0  1  0  0  0  0  0  0
   -5.1296    0.2213    0.4450 C   0  0  0  0  0  0  0  0  0  0  0  0
   -4.9437   -0.9689    0.8069 O   0  0  0  0  0  0  0  0  0  0  0  0
   -4.0350    0.9789   -0.2048 C   0  0  0  0  0  0  0  0  0  0  0  0
   -2.8154    0.1140   -0.3171 C   0  0  0  0  0  0  0  0  0  0  0  0
   -1.7575    0.8694   -0.9534 N   0  0  0  0  0  0  0  0  0  0  0  0
   -0.4635    0.2871   -1.1926 C   0  0  0  0  0  0  0  0  0  0  0  0
   -0.3442   -0.9049   -0.8072 O   0  0  0  0  0  0  0  0  0  0  0  0
    0.5911    1.0788   -1.8408 C   0  0  0  0  0  0  0  0  0  0  0  0
    1.8813    0.3618   -2.0183 C   0  0  0  0  0  0  0  0  0  0  0  0
    2.5147   -0.0994   -0.7609 C   0  0  0  0  0  0  0  0  0  0  0  0
    2.2988   -1.3277   -0.1811 C   0  0  0  0  0  0  0  0  0  0  0  0
    2.9229   -1.7097    1.0050 C   0  0  0  0  0  0  0  0  0  0  0  0
    3.7976   -0.8174    1.6282 C   0  0  0  0  0  0  0  0  0  0  0  0
    4.4290   -1.1914    2.8192 O   0  0  0  0  0  0  0  0  0  0  0  0
    4.0224    0.4135    1.0595 C   0  0  0  0  0  0  0  0  0  0  0  0
    3.3856    0.7773   -0.1319 C   0  0  0  0  0  0  0  0  0  0  0  0
  2  1  1  1
  2  3  1  0
  3  4  1  0
  4  5  1  0
  5  6  2  0
  6  7  1  0
  7  8  2  0
  2  9  1  0
  9 10  1  0
 10 11  2  0
 11 12  1  0
 12 13  2  0
 13 14  1  0
 14 15  2  0
 15 16  1  0
 16 17  1  0
 17 18  2  0
 18 19  1  0
 19 20  2  0
 20 21  1  0
 20 22  1  0
 22 23  2  0
 23 24  1  0
 15 25  1  0
 25 26  2  0
 25 27  1  0
 27 28  1  0
 27 29  1  0
 29 30  2  0
 31 32  1  0
 32 33  2  0
 32 34  1  0
 34 35  1  0
 35 36  1  0
 36 37  1  0
 37 38  2  0
 37 39  1  0
 39 40  1  0
 40 41  1  0
 41 42  2  0
 42 43  1  0
 43 44  2  0
 44 45  1  0
 44 46  1  0
 46 47  2  0
  8  4  1  0
 30 10  1  0
 47 41  1  0
 29 13  1  0
 23 17  1  0
M  RAD  1  31   2
M  END

