
     RDKit          3D

 50 54  0  0  0  0  0  0  0  0999 V2000
    3.8807   -0.3607   -1.9041 C   0  0  0  0  0  0  0  0  0  0  0  0
    4.4214    0.3772   -0.4901 C   0  0  2  0  0  0  0  0  0  0  0  0
    5.9122   -0.3858   -0.6084 C   0  0  0  0  0  0  0  0  0  0  0  0
    6.5881    0.1186    0.5588 N   0  0  0  0  0  0  0  0  0  0  0  0
    6.6164   -0.3862    1.7925 N   0  0  0  0  0  0  0  0  0  0  0  0
    7.3694    0.3972    2.5944 C   0  0  0  0  0  0  0  0  0  0  0  0
    7.8018    1.3937    1.8232 N   0  0  0  0  0  0  0  0  0  0  0  0
    7.3243    1.2066    0.6173 N   0  0  0  0  0  0  0  0  0  0  0  0
    3.8551   -0.7425    0.4771 N   0  0  0  0  0  0  0  0  0  0  0  0
    2.4826   -0.9832    0.4663 C   0  0  0  0  0  0  0  0  0  0  0  0
    1.9244   -1.9110    1.2521 N   0  0  0  0  0  0  0  0  0  0  0  0
    0.5832   -2.1472    1.2426 C   0  0  0  0  0  0  0  0  0  0  0  0
   -0.2344   -1.4007    0.3890 C   0  0  0  0  0  0  0  0  0  0  0  0
   -1.5894   -1.5906    0.3329 C   0  0  0  0  0  0  0  0  0  0  0  0
   -2.3629   -0.8361   -0.5207 C   0  0  0  0  0  0  0  0  0  0  0  0
   -3.7198   -1.0560   -0.5484 O   0  0  0  0  0  0  0  0  0  0  0  0
   -4.6774   -0.1013   -0.2513 C   0  0  0  0  0  0  0  0  0  0  0  0
   -4.4061    1.1835    0.1082 C   0  0  0  0  0  0  0  0  0  0  0  0
   -5.4668    2.0524    0.3834 C   0  0  0  0  0  0  0  0  0  0  0  0
   -6.7827    1.6341    0.2981 C   0  0  0  0  0  0  0  0  0  0  0  0
   -7.8024    2.4976    0.5708 F   0  0  0  0  0  0  0  0  0  0  0  0
   -7.0512    0.3517   -0.0608 C   0  0  0  0  0  0  0  0  0  0  0  0
   -6.0056   -0.5172   -0.3357 C   0  0  0  0  0  0  0  0  0  0  0  0
   -6.3317   -1.7825   -0.6882 F   0  0  0  0  0  0  0  0  0  0  0  0
   -1.7460    0.1092   -1.3129 C   0  0  0  0  0  0  0  0  0  0  0  0
   -2.4238    0.8152   -2.1036 O   0  0  0  0  0  0  0  0  0  0  0  0
   -0.4331    0.2802   -1.2462 N   0  0  0  0  0  0  0  0  0  0  0  0
    0.2449    1.2725   -2.0726 C   0  0  0  0  0  0  0  0  0  0  0  0
    0.3487   -0.4486   -0.4158 C   0  0  0  0  0  0  0  0  0  0  0  0
    1.6802   -0.2755   -0.3478 N   0  0  0  0  0  0  0  0  0  0  0  0
    5.0558   -2.4428   -0.6095 O   0  0  0  0  0  1  0  0  0  0  0  0
    5.2353   -1.2362    0.0355 C   0  0  0  0  0  0  0  0  0  0  0  0
    6.1461   -1.1624    0.9243 O   0  0  0  0  0  0  0  0  0  0  0  0
    4.4237   -0.0346   -0.2586 C   0  0  0  0  0  0  0  0  0  0  0  0
    3.5482    0.3308    0.9435 C   0  0  0  0  0  0  0  0  0  0  0  0
    2.7912    1.5716    0.5299 C   0  0  0  0  0  0  0  0  0  0  0  0
    2.0053    1.2655   -0.6363 N   0  0  0  0  0  0  0  0  0  0  0  0
    1.0066    0.2426   -0.5501 C   0  0  0  0  0  0  0  0  0  0  0  0
    0.7787   -0.4076    0.5010 O   0  0  0  0  0  0  0  0  0  0  0  0
    0.2232   -0.0275   -1.7975 C   0  0  0  0  0  0  0  0  0  0  0  0
   -0.8053   -1.0835   -1.5512 C   0  0  0  0  0  0  0  0  0  0  0  0
   -1.7972   -0.7312   -0.5089 C   0  0  0  0  0  0  0  0  0  0  0  0
   -1.8355   -1.2161    0.7759 C   0  0  0  0  0  0  0  0  0  0  0  0
   -2.8772   -0.6660    1.4086 N   0  0  0  0  0  0  0  0  0  0  0  0
   -3.5186    0.1640    0.5749 C   0  0  0  0  0  0  0  0  0  0  0  0
   -4.6544    0.9608    0.7723 C   0  0  0  0  0  0  0  0  0  0  0  0
   -5.1070    1.7293   -0.2723 C   0  0  0  0  0  0  0  0  0  0  0  0
   -4.4417    1.6960   -1.4688 C   0  0  0  0  0  0  0  0  0  0  0  0
   -3.3207    0.9152   -1.6811 C   0  0  0  0  0  0  0  0  0  0  0  0
   -2.8566    0.1323   -0.6222 C   0  0  0  0  0  0  0  0  0  0  0  0
  2  1  1  6
  2  3  1  0
  3  4  1  0
  4  5  1  0
  5  6  2  0
  6  7  1  0
  7  8  2  0
  2  9  1  0
  9 10  1  0
 10 11  2  0
 11 12  1  0
 12 13  2  0
 13 14  1  0
 14 15  2  0
 15 16  1  0
 16 17  1  0
 17 18  2  0
 18 19  1  0
 19 20  2  0
 20 21  1  0
 20 22  1  0
 22 23  2  0
 23 24  1  0
 15 25  1  0
 25 26  2  0
 25 27  1  0
 27 28  1  0
 27 29  1  0
 29 30  2  0
 31 32  1  0
 32 33  2  0
 32 34  1  0
 34 35  1  0
 35 36  1  0
 36 37  1  0
 37 38  1  0
 38 39  2  0
 38 40  1  0
 40 41  1  0
 41 42  1  0
 42 43  2  0
 43 44  1  0
 44 45  1  0
 45 46  2  0
 46 47  1  0
 47 48  2  0
 48 49  1  0
 49 50  2  0
  8  4  1  0
 30 10  1  0
 50 42  1  0
 29 13  1  0
 50 45  1  0
 23 17  1  0
M  RAD  1  31   2
M  END

