
     RDKit          3D

 41 43  0  0  0  0  0  0  0  0999 V2000
    6.4240    0.2575    1.8720 C   0  0  0  0  0  0  0  0  0  0  0  0
    5.0752   -0.7018    1.9567 C   0  0  2  0  0  0  0  0  0  0  0  0
    5.4721   -1.5794    0.6189 C   0  0  0  0  0  0  0  0  0  0  0  0
    5.5669   -0.6888   -0.4854 N   0  0  0  0  0  0  0  0  0  0  0  0
    4.5274   -0.3959   -1.2628 N   0  0  0  0  0  0  0  0  0  0  0  0
    4.9112    0.4528   -2.2016 C   0  0  0  0  0  0  0  0  0  0  0  0
    6.2080    0.6927   -2.0074 N   0  0  0  0  0  0  0  0  0  0  0  0
    6.5820   -0.0100   -0.9624 N   0  0  0  0  0  0  0  0  0  0  0  0
    4.1655    0.3290    1.1838 N   0  0  0  0  0  0  0  0  0  0  0  0
    2.8196   -0.0870    1.0004 C   0  0  0  0  0  0  0  0  0  0  0  0
    2.3847   -1.2802    1.4650 N   0  0  0  0  0  0  0  0  0  0  0  0
    1.1129   -1.6575    1.2840 C   0  0  0  0  0  0  0  0  0  0  0  0
    0.2214   -0.8198    0.6119 C   0  0  0  0  0  0  0  0  0  0  0  0
   -1.0749   -1.1704    0.4109 C   0  0  0  0  0  0  0  0  0  0  0  0
   -1.9494   -0.2629   -0.2907 C   0  0  0  0  0  0  0  0  0  0  0  0
   -3.2016   -0.6635   -0.4562 O   0  0  0  0  0  0  0  0  0  0  0  0
   -4.4897   -0.4873   -0.2148 C   0  0  0  0  0  0  0  0  0  0  0  0
   -5.1078   -1.5451    0.5451 C   0  0  0  0  0  0  0  0  0  0  0  0
   -6.4109   -1.4652    0.8448 C   0  0  0  0  0  0  0  0  0  0  0  0
   -7.2442   -0.4319    0.4825 C   0  0  0  0  0  0  0  0  0  0  0  0
   -8.5398   -0.4475    0.8368 F   0  0  0  0  0  0  0  0  0  0  0  0
   -6.6653    0.5774   -0.2407 C   0  0  0  0  0  0  0  0  0  0  0  0
   -5.3041    0.5405   -0.5806 C   0  0  0  0  0  0  0  0  0  0  0  0
   -4.8478    1.5945   -1.3288 F   0  0  0  0  0  0  0  0  0  0  0  0
   -1.4201    0.9171   -0.7226 C   0  0  0  0  0  0  0  0  0  0  0  0
   -2.1208    1.7768   -1.3546 O   0  0  0  0  0  0  0  0  0  0  0  0
   -0.1165    1.2381   -0.5043 N   0  0  0  0  0  0  0  0  0  0  0  0
    0.3816    2.5264   -0.9979 C   0  0  0  0  0  0  0  0  0  0  0  0
    0.6731    0.3887    0.1446 C   0  0  0  0  0  0  0  0  0  0  0  0
    1.9673    0.7231    0.3533 N   0  0  0  0  0  0  0  0  0  0  0  0
   -3.9902   -0.1126   -0.1952 O   0  0  0  0  0  1  0  0  0  0  0  0
   -2.6299   -0.2734   -0.4109 C   0  0  0  0  0  0  0  0  0  0  0  0
   -2.0293    0.5749   -1.0968 O   0  0  0  0  0  0  0  0  0  0  0  0
   -1.9881   -1.4649    0.2042 C   0  0  0  0  0  0  0  0  0  0  0  0
   -0.5072   -1.5237   -0.1045 C   0  0  0  0  0  0  0  0  0  0  0  0
    0.1756   -0.3215    0.4166 C   0  0  0  0  0  0  0  0  0  0  0  0
   -0.4599    0.5738    1.0192 O   0  0  0  0  0  0  0  0  0  0  0  0
    1.5746   -0.1717    0.2351 N   0  0  0  0  0  0  0  0  0  0  0  0
    2.2118    1.0234    0.7609 C   0  0  0  0  0  0  0  0  0  0  0  0
    3.6899    1.0199    0.4818 C   0  0  0  0  0  0  0  0  0  0  0  0
    3.9526    0.9574   -1.3104 S   0  0  0  0  0  0  0  0  0  0  0  0
  2  1  1  6
  2  3  1  0
  3  4  1  0
  4  5  1  0
  5  6  2  0
  6  7  1  0
  7  8  2  0
  2  9  1  0
  9 10  1  0
 10 11  2  0
 11 12  1  0
 12 13  2  0
 13 14  1  0
 14 15  2  0
 15 16  1  0
 16 17  1  0
 17 18  2  0
 18 19  1  0
 19 20  2  0
 20 21  1  0
 20 22  1  0
 22 23  2  0
 23 24  1  0
 15 25  1  0
 25 26  2  0
 25 27  1  0
 27 28  1  0
 27 29  1  0
 29 30  2  0
 31 32  1  0
 32 33  2  0
 32 34  1  0
 34 35  1  0
 35 36  1  0
 36 37  2  0
 36 38  1  0
 38 39  1  0
 39 40  1  0
 40 41  1  0
  8  4  1  0
 30 10  1  0
 29 13  1  0
 23 17  1  0
M  RAD  1  31   2
M  END

