
     RDKit          3D

 44 47  0  0  0  0  0  0  0  0999 V2000
    2.9813    1.1778   -1.2882 C   0  0  0  0  0  0  0  0  0  0  0  0
    2.8570   -0.3071   -2.0404 C   0  0  1  0  0  0  0  0  0  0  0  0
    4.3481   -0.2247   -2.4353 O   0  0  0  0  0  0  0  0  0  0  0  0
    3.1819   -1.1348   -0.6777 C   0  0  0  0  0  0  0  0  0  0  0  0
    1.9712   -1.4629   -0.0480 N   0  0  0  0  0  0  0  0  0  0  0  0
    0.9276   -0.6822    0.4773 C   0  0  0  0  0  0  0  0  0  0  0  0
    1.0533    0.5702    0.3965 O   0  0  0  0  0  0  0  0  0  0  0  0
   -0.2519   -1.1292    1.0886 C   0  0  0  0  0  0  0  0  0  0  0  0
   -1.3428   -0.6213    1.6417 C   0  0  0  0  0  0  0  0  0  0  0  0
   -2.3616    0.2483    1.0398 C   0  0  0  0  0  0  0  0  0  0  0  0
   -2.3292    1.6135    1.0342 C   0  0  0  0  0  0  0  0  0  0  0  0
   -3.4465    1.9931    0.3843 N   0  0  0  0  0  0  0  0  0  0  0  0
   -4.1282    0.8850    0.0115 C   0  0  0  0  0  0  0  0  0  0  0  0
   -3.4602   -0.2111    0.4155 N   0  0  0  0  0  0  0  0  0  0  0  0
   -3.4038    2.8932   -0.2642 C   0  0  0  0  0  0  0  0  0  0  0  0
   -4.6500    1.8170   -0.4385 C   0  0  2  0  0  0  0  0  0  0  0  0
   -4.0198    0.7618    0.6572 C   0  0  0  0  0  0  0  0  0  0  0  0
   -4.9559   -0.3371    0.7092 N   0  0  0  0  0  0  0  0  0  0  0  0
   -6.0085   -0.5443    1.4582 N   0  0  0  0  0  0  0  0  0  0  0  0
   -6.5569   -1.7370    1.1201 C   0  0  0  0  0  0  0  0  0  0  0  0
   -5.8062   -2.2582    0.1368 N   0  0  0  0  0  0  0  0  0  0  0  0
   -4.8440   -1.3890   -0.0915 N   0  0  0  0  0  0  0  0  0  0  0  0
   -4.0387    1.1082   -1.6930 N   0  0  0  0  0  0  0  0  0  0  0  0
   -2.7536    0.5862   -1.6384 C   0  0  0  0  0  0  0  0  0  0  0  0
   -2.1339   -0.0449   -2.6461 N   0  0  0  0  0  0  0  0  0  0  0  0
   -0.8833   -0.5061   -2.4951 C   0  0  0  0  0  0  0  0  0  0  0  0
   -0.1768   -0.3547   -1.3022 C   0  0  0  0  0  0  0  0  0  0  0  0
    1.0675   -0.7943   -1.1030 C   0  0  0  0  0  0  0  0  0  0  0  0
    1.7089   -0.5880    0.1630 C   0  0  0  0  0  0  0  0  0  0  0  0
    2.9471   -1.0683    0.2553 O   0  0  0  0  0  0  0  0  0  0  0  0
    4.2017   -0.6206    0.4045 C   0  0  0  0  0  0  0  0  0  0  0  0
    5.0532   -0.8728   -0.7290 C   0  0  0  0  0  0  0  0  0  0  0  0
    6.3549   -0.5033   -0.7820 C   0  0  0  0  0  0  0  0  0  0  0  0
    6.9668    0.1516    0.2639 C   0  0  0  0  0  0  0  0  0  0  0  0
    8.2660    0.5047    0.1722 F   0  0  0  0  0  0  0  0  0  0  0  0
    6.1833    0.4055    1.3576 C   0  0  0  0  0  0  0  0  0  0  0  0
    4.8297    0.0236    1.4194 C   0  0  0  0  0  0  0  0  0  0  0  0
    4.1962    0.3128    2.5788 F   0  0  0  0  0  0  0  0  0  0  0  0
    1.0260    0.0560    1.1396 C   0  0  0  0  0  0  0  0  0  0  0  0
    1.5055    0.2834    2.3002 O   0  0  0  0  0  0  0  0  0  0  0  0
   -0.2440    0.4972    0.9137 N   0  0  0  0  0  0  0  0  0  0  0  0
   -0.9393    1.1923    2.0069 C   0  0  0  0  0  0  0  0  0  0  0  0
   -0.8236    0.2965   -0.2708 C   0  0  0  0  0  0  0  0  0  0  0  0
   -2.0684    0.7287   -0.4932 N   0  0  0  0  0  0  0  0  0  0  0  0
  2  1  1  1
  2  3  1  0
  2  4  1  0
  4  5  1  0
  5  6  1  0
  6  7  2  0
  6  8  1  0
  8  9  1  0
  9 10  1  0
 10 11  2  0
 11 12  1  0
 12 13  1  0
 13 14  2  0
 16 15  1  1
 16 17  1  0
 17 18  1  0
 18 19  1  0
 19 20  2  0
 20 21  1  0
 21 22  2  0
 16 23  1  0
 23 24  1  0
 24 25  2  0
 25 26  1  0
 26 27  2  0
 27 28  1  0
 28 29  2  0
 29 30  1  0
 30 31  1  0
 31 32  2  0
 32 33  1  0
 33 34  2  0
 34 35  1  0
 34 36  1  0
 36 37  2  0
 37 38  1  0
 29 39  1  0
 39 40  2  0
 39 41  1  0
 41 42  1  0
 41 43  1  0
 43 44  2  0
 14 10  1  0
 22 18  1  0
 44 24  1  0
 43 27  1  0
 37 31  1  0
M  END

