
     RDKit          3D

 39 41  0  0  0  0  0  0  0  0999 V2000
   -2.7708   -0.8147   -1.4281 C   0  0  0  0  0  0  0  0  0  0  0  0
   -2.6161    0.0593   -0.2157 C   0  0  0  0  0  0  0  0  0  0  0  0
   -1.2474   -0.5340    0.4637 C   0  0  2  0  0  0  0  0  0  0  0  0
   -1.2978    0.5311    1.6977 C   0  0  0  0  0  0  0  0  0  0  0  0
   -0.2744    0.3877   -0.4388 C   0  0  0  0  0  0  0  0  0  0  0  0
    1.1070    0.0870   -0.0605 C   0  0  0  0  0  0  0  0  0  0  0  0
    1.3248   -0.7819    0.8465 O   0  0  0  0  0  0  0  0  0  0  0  0
    2.2246    0.7032   -0.6409 N   0  0  0  0  0  0  0  0  0  0  0  0
    3.5501    0.3623   -0.2238 C   0  0  0  0  0  0  0  0  0  0  0  0
   -3.7275    1.3838   -1.3670 C   0  0  0  0  0  0  0  0  0  0  0  0
   -4.4685    0.1736   -0.4835 C   0  0  2  0  0  0  0  0  0  0  0  0
   -5.7092    1.1932   -0.0385 C   0  0  0  0  0  0  0  0  0  0  0  0
   -6.5644    0.3625    0.7891 N   0  0  0  0  0  0  0  0  0  0  0  0
   -6.4907    0.1938    2.1063 N   0  0  0  0  0  0  0  0  0  0  0  0
   -7.4875   -0.6588    2.4021 C   0  0  0  0  0  0  0  0  0  0  0  0
   -8.1508   -1.0006    1.2963 N   0  0  0  0  0  0  0  0  0  0  0  0
   -7.5624   -0.3553    0.3008 N   0  0  0  0  0  0  0  0  0  0  0  0
   -3.6547    0.4629    0.8382 N   0  0  0  0  0  0  0  0  0  0  0  0
   -2.2675    0.3474    0.7763 C   0  0  0  0  0  0  0  0  0  0  0  0
   -1.4218    0.5525    1.7864 N   0  0  0  0  0  0  0  0  0  0  0  0
   -0.0852    0.4229    1.6574 C   0  0  0  0  0  0  0  0  0  0  0  0
    0.4570    0.0651    0.4439 C   0  0  0  0  0  0  0  0  0  0  0  0
    1.8140   -0.0871    0.2343 C   0  0  0  0  0  0  0  0  0  0  0  0
    2.3242   -0.4477   -0.9983 C   0  0  0  0  0  0  0  0  0  0  0  0
    3.6458   -0.6183   -1.2872 O   0  0  0  0  0  0  0  0  0  0  0  0
    4.6993   -0.4686   -0.4315 C   0  0  0  0  0  0  0  0  0  0  0  0
    4.5534   -0.1092    0.8957 C   0  0  0  0  0  0  0  0  0  0  0  0
    5.6352    0.0341    1.7349 C   0  0  0  0  0  0  0  0  0  0  0  0
    6.9200   -0.1782    1.2772 C   0  0  0  0  0  0  0  0  0  0  0  0
    7.9882   -0.0366    2.1062 F   0  0  0  0  0  0  0  0  0  0  0  0
    7.0887   -0.5385   -0.0471 C   0  0  0  0  0  0  0  0  0  0  0  0
    5.9826   -0.6812   -0.8908 C   0  0  0  0  0  0  0  0  0  0  0  0
    6.1441   -1.0330   -2.1850 F   0  0  0  0  0  0  0  0  0  0  0  0
    1.4036   -0.6469   -2.0064 C   0  0  0  0  0  0  0  0  0  0  0  0
    1.8185   -0.9777   -3.1514 O   0  0  0  0  0  0  0  0  0  0  0  0
    0.0908   -0.5090   -1.8391 N   0  0  0  0  0  0  0  0  0  0  0  0
   -0.8723   -0.7211   -2.9077 C   0  0  0  0  0  0  0  0  0  0  0  0
   -0.3967   -0.1526   -0.6162 C   0  0  0  0  0  0  0  0  0  0  0  0
   -1.7062   -0.0009   -0.3955 N   0  0  0  0  0  0  0  0  0  0  0  0
  1  2  1  0
  2  3  1  0
  3  4  1  1
  3  5  1  0
  5  6  1  0
  6  7  2  0
  6  8  1  0
  8  9  1  0
 11 10  1  6
 11 12  1  0
 12 13  1  0
 13 14  1  0
 14 15  2  0
 15 16  1  0
 16 17  2  0
 11 18  1  0
 18 19  1  0
 19 20  2  0
 20 21  1  0
 21 22  2  0
 22 23  1  0
 23 24  2  0
 24 25  1  0
 25 26  1  0
 26 27  2  0
 27 28  1  0
 28 29  2  0
 29 30  1  0
 29 31  1  0
 31 32  2  0
 32 33  1  0
 24 34  1  0
 34 35  2  0
 34 36  1  0
 36 37  1  0
 36 38  1  0
 38 39  2  0
 17 13  1  0
 39 19  1  0
 38 22  1  0
 32 26  1  0
M  END

