
     RDKit          3D

 41 43  0  0  0  0  0  0  0  0999 V2000
    3.9967   -0.1272    0.9835 C   0  0  0  0  0  0  0  0  0  0  0  0
    2.5896   -0.4152    1.4874 C   0  0  0  0  0  0  0  0  0  0  0  0
    1.6867   -0.6422    0.3254 C   0  0  0  0  0  0  0  0  0  0  0  0
    2.1282   -0.5809   -0.8522 O   0  0  0  0  0  0  0  0  0  0  0  0
    0.3146   -0.9301    0.5706 N   0  0  0  0  0  0  0  0  0  0  0  0
   -0.5713   -1.1532   -0.5822 C   0  0  0  0  0  0  0  0  0  0  0  0
   -0.5416    0.1291   -1.4219 C   0  0  0  0  0  0  0  0  0  0  0  0
   -1.0370    1.2843   -0.5681 C   0  0  0  0  0  0  0  0  0  0  0  0
   -2.4246    0.9652   -0.1437 C   0  0  0  0  0  0  0  0  0  0  0  0
   -3.1266    1.8993    0.6772 N   0  0  0  0  0  0  0  0  0  0  0  0
   -3.0146   -0.0975   -0.4761 O   0  0  0  0  0  0  0  0  0  0  0  0
   -6.2539   -0.9983    2.4488 C   0  0  0  0  0  0  0  0  0  0  0  0
   -5.3384    0.0446    1.4977 C   0  0  2  0  0  0  0  0  0  0  0  0
   -6.1301   -0.4674    0.1535 C   0  0  0  0  0  0  0  0  0  0  0  0
   -5.5429    0.2864   -0.9165 N   0  0  0  0  0  0  0  0  0  0  0  0
   -4.5076   -0.1405   -1.6352 N   0  0  0  0  0  0  0  0  0  0  0  0
   -4.1649    0.7640   -2.5689 C   0  0  0  0  0  0  0  0  0  0  0  0
   -5.0400    1.7662   -2.3881 N   0  0  0  0  0  0  0  0  0  0  0  0
   -5.8606    1.4756   -1.4000 N   0  0  0  0  0  0  0  0  0  0  0  0
   -4.1751   -0.9922    1.3748 N   0  0  0  0  0  0  0  0  0  0  0  0
   -2.9235   -0.4711    0.9498 C   0  0  0  0  0  0  0  0  0  0  0  0
   -2.6918    0.8232    0.6775 N   0  0  0  0  0  0  0  0  0  0  0  0
   -1.4910    1.2717    0.2778 C   0  0  0  0  0  0  0  0  0  0  0  0
   -0.4236    0.3908    0.1293 C   0  0  0  0  0  0  0  0  0  0  0  0
    0.8119    0.8065   -0.2743 C   0  0  0  0  0  0  0  0  0  0  0  0
    1.8670   -0.1352   -0.4096 C   0  0  0  0  0  0  0  0  0  0  0  0
    3.0283    0.3533   -0.8062 O   0  0  0  0  0  0  0  0  0  0  0  0
    4.2948    0.5743   -0.5472 C   0  0  0  0  0  0  0  0  0  0  0  0
    4.6695    1.9440   -0.4910 C   0  0  0  0  0  0  0  0  0  0  0  0
    5.9242    2.3462   -0.2382 C   0  0  0  0  0  0  0  0  0  0  0  0
    6.9074    1.4323   -0.0212 C   0  0  0  0  0  0  0  0  0  0  0  0
    8.1733    1.8471    0.2346 F   0  0  0  0  0  0  0  0  0  0  0  0
    6.6012    0.1064   -0.0644 C   0  0  0  0  0  0  0  0  0  0  0  0
    5.2945   -0.3167   -0.3279 C   0  0  0  0  0  0  0  0  0  0  0  0
    5.1313   -1.6487   -0.3616 F   0  0  0  0  0  0  0  0  0  0  0  0
    1.5727   -1.4364   -0.1200 C   0  0  0  0  0  0  0  0  0  0  0  0
    2.4250   -2.3584   -0.2063 O   0  0  0  0  0  0  0  0  0  0  0  0
    0.3391   -1.8212    0.2784 N   0  0  0  0  0  0  0  0  0  0  0  0
    0.0470   -3.2092    0.5820 C   0  0  0  0  0  0  0  0  0  0  0  0
   -0.6594   -0.9375    0.4081 C   0  0  0  0  0  0  0  0  0  0  0  0
   -1.8846   -1.2996    0.8005 N   0  0  0  0  0  0  0  0  0  0  0  0
  1  2  1  0
  2  3  1  0
  3  4  2  0
  3  5  1  0
  5  6  1  0
  6  7  1  0
  7  8  1  0
  8  9  1  0
  9 10  1  0
  9 11  2  0
 13 12  1  1
 13 14  1  0
 14 15  1  0
 15 16  1  0
 16 17  2  0
 17 18  1  0
 18 19  2  0
 13 20  1  0
 20 21  1  0
 21 22  2  0
 22 23  1  0
 23 24  2  0
 24 25  1  0
 25 26  2  0
 26 27  1  0
 27 28  1  0
 28 29  2  0
 29 30  1  0
 30 31  2  0
 31 32  1  0
 31 33  1  0
 33 34  2  0
 34 35  1  0
 26 36  1  0
 36 37  2  0
 36 38  1  0
 38 39  1  0
 38 40  1  0
 40 41  2  0
 19 15  1  0
 41 21  1  0
 40 24  1  0
 34 28  1  0
M  END

