
     RDKit          3D

 46 50  0  0  0  0  0  0  0  0999 V2000
    6.0385    1.4824    0.9945 C   0  0  0  0  0  0  0  0  0  0  0  0
    4.3896    1.4837    1.1781 C   0  0  2  0  0  0  0  0  0  0  0  0
    4.3375   -0.0914    1.6689 C   0  0  0  0  0  0  0  0  0  0  0  0
    4.8809   -0.9017    0.6239 N   0  0  0  0  0  0  0  0  0  0  0  0
    4.1192   -1.4019   -0.3344 N   0  0  0  0  0  0  0  0  0  0  0  0
    4.8707   -2.1192   -1.1822 C   0  0  0  0  0  0  0  0  0  0  0  0
    6.1228   -2.0553   -0.7302 N   0  0  0  0  0  0  0  0  0  0  0  0
    6.0879   -1.3133    0.3589 N   0  0  0  0  0  0  0  0  0  0  0  0
    4.1136    1.1666   -0.3481 N   0  0  0  0  0  0  0  0  0  0  0  0
    2.7236    1.0767   -0.6399 C   0  0  0  0  0  0  0  0  0  0  0  0
    2.4020    0.8093   -1.9177 N   0  0  0  0  0  0  0  0  0  0  0  0
    1.0983    0.7077   -2.2758 C   0  0  0  0  0  0  0  0  0  0  0  0
    0.0915    0.8761   -1.3413 C   0  0  0  0  0  0  0  0  0  0  0  0
   -1.2391    0.7743   -1.6979 C   0  0  0  0  0  0  0  0  0  0  0  0
   -2.1826    0.9526   -0.7214 C   0  0  0  0  0  0  0  0  0  0  0  0
   -3.5563    0.8680   -0.9889 O   0  0  0  0  0  0  0  0  0  0  0  0
   -4.3782   -0.0469   -0.3754 C   0  0  0  0  0  0  0  0  0  0  0  0
   -5.4484    0.4089    0.3843 C   0  0  0  0  0  0  0  0  0  0  0  0
   -6.2735   -0.5013    1.0000 C   0  0  0  0  0  0  0  0  0  0  0  0
   -6.0638   -1.8745    0.8816 C   0  0  0  0  0  0  0  0  0  0  0  0
   -6.9205   -2.6923    1.5178 F   0  0  0  0  0  0  0  0  0  0  0  0
   -5.0000   -2.2894    0.1254 C   0  0  0  0  0  0  0  0  0  0  0  0
   -4.1590   -1.3960   -0.5013 C   0  0  0  0  0  0  0  0  0  0  0  0
   -3.1408   -1.8640   -1.2234 F   0  0  0  0  0  0  0  0  0  0  0  0
   -1.8121    1.2253    0.5766 C   0  0  0  0  0  0  0  0  0  0  0  0
   -2.6700    1.3925    1.4893 O   0  0  0  0  0  0  0  0  0  0  0  0
   -0.5007    1.3219    0.9098 N   0  0  0  0  0  0  0  0  0  0  0  0
   -0.1173    1.6106    2.2851 C   0  0  0  0  0  0  0  0  0  0  0  0
    0.4413    1.1503   -0.0333 C   0  0  0  0  0  0  0  0  0  0  0  0
    1.7449    1.2402    0.2677 N   0  0  0  0  0  0  0  0  0  0  0  0
    1.8095   -1.1104    0.9932 O   0  0  0  0  0  0  0  0  0  0  0  0
    1.8835    0.0732    0.6755 C   0  0  0  0  0  0  0  0  0  0  0  0
    0.7839    0.8051    0.2319 N   0  0  0  0  0  0  0  0  0  0  0  0
   -0.5016    0.1412    0.1416 C   0  0  0  0  0  0  0  0  0  0  0  0
   -1.5056    1.1644   -0.3633 C   0  0  0  0  0  0  0  0  0  0  0  0
   -2.8096    0.4780   -0.4514 C   0  0  0  0  0  0  0  0  0  0  0  0
   -3.6472    0.4819    0.6345 C   0  0  0  0  0  0  0  0  0  0  0  0
   -4.8936   -0.1571    0.5942 C   0  0  0  0  0  0  0  0  0  0  0  0
   -5.2431   -0.7810   -0.5592 C   0  0  0  0  0  0  0  0  0  0  0  0
   -4.4217   -0.8001   -1.6631 C   0  0  0  0  0  0  0  0  0  0  0  0
   -3.1966   -0.1590   -1.5902 C   0  0  0  0  0  0  0  0  0  0  0  0
    3.3002    0.8205    0.7706 C   0  0  2  0  0  0  0  0  0  0  0  0
    3.7173    0.5274   -0.8222 C   0  0  0  0  0  0  0  0  0  0  0  0
    5.2018    0.6048   -0.5619 C   0  0  0  0  0  0  0  0  0  0  0  0
    5.3877   -0.2023    0.6705 C   0  0  0  0  0  0  0  0  0  0  0  0
    4.1351   -0.4160    1.2993 N   0  0  0  0  0  0  0  0  0  0  0  0
  2  1  1  6
  2  3  1  0
  3  4  1  0
  4  5  1  0
  5  6  2  0
  6  7  1  0
  7  8  2  0
  2  9  1  0
  9 10  1  0
 10 11  2  0
 11 12  1  0
 12 13  2  0
 13 14  1  0
 14 15  2  0
 15 16  1  0
 16 17  1  0
 17 18  2  0
 18 19  1  0
 19 20  2  0
 20 21  1  0
 20 22  1  0
 22 23  2  0
 23 24  1  0
 15 25  1  0
 25 26  2  0
 25 27  1  0
 27 28  1  0
 27 29  1  0
 29 30  2  0
 31 32  2  0
 32 33  1  0
 33 34  1  0
 34 35  1  0
 35 36  1  0
 36 37  2  0
 37 38  1  0
 38 39  2  0
 39 40  1  0
 40 41  2  0
 42 32  1  6
 42 43  1  0
 43 44  1  0
 44 45  1  0
 45 46  1  0
  8  4  1  0
 30 10  1  0
 41 36  1  0
 46 42  1  0
 29 13  1  0
 23 17  1  0
M  END

