
     RDKit          3D

 46 49  0  0  0  0  0  0  0  0999 V2000
    6.0024   -1.7063    0.4300 C   0  0  0  0  0  0  0  0  0  0  0  0
    4.4448   -1.8276   -0.1304 C   0  0  2  0  0  0  0  0  0  0  0  0
    4.5949   -0.7095   -1.3353 C   0  0  0  0  0  0  0  0  0  0  0  0
    4.9502    0.5355   -0.7880 N   0  0  0  0  0  0  0  0  0  0  0  0
    6.2328    0.8977   -0.6216 N   0  0  0  0  0  0  0  0  0  0  0  0
    6.3096    2.1110   -0.0899 C   0  0  0  0  0  0  0  0  0  0  0  0
    5.0344    2.5196    0.0812 N   0  0  0  0  0  0  0  0  0  0  0  0
    4.2323    1.5559   -0.3457 N   0  0  0  0  0  0  0  0  0  0  0  0
    3.8658   -0.8035    0.9159 N   0  0  0  0  0  0  0  0  0  0  0  0
    2.4701   -0.6454    0.7268 C   0  0  0  0  0  0  0  0  0  0  0  0
    1.7493    0.2001    1.5255 N   0  0  0  0  0  0  0  0  0  0  0  0
    0.4421    0.3882    1.3952 C   0  0  0  0  0  0  0  0  0  0  0  0
   -0.2513   -0.2928    0.4098 C   0  0  0  0  0  0  0  0  0  0  0  0
   -1.5968   -0.1095    0.2636 C   0  0  0  0  0  0  0  0  0  0  0  0
   -2.2231   -0.8083   -0.7247 C   0  0  0  0  0  0  0  0  0  0  0  0
   -3.5827   -0.6998   -0.9624 O   0  0  0  0  0  0  0  0  0  0  0  0
   -4.4314    0.1123   -0.2371 C   0  0  0  0  0  0  0  0  0  0  0  0
   -5.5095   -0.3610    0.4735 C   0  0  0  0  0  0  0  0  0  0  0  0
   -6.3568    0.4362    1.1955 C   0  0  0  0  0  0  0  0  0  0  0  0
   -6.0855    1.8013    1.1910 C   0  0  0  0  0  0  0  0  0  0  0  0
   -6.8890    2.6238    1.8851 F   0  0  0  0  0  0  0  0  0  0  0  0
   -5.0073    2.2947    0.4831 C   0  0  0  0  0  0  0  0  0  0  0  0
   -4.1840    1.4664   -0.2260 C   0  0  0  0  0  0  0  0  0  0  0  0
   -3.1158    1.9700   -0.9253 F   0  0  0  0  0  0  0  0  0  0  0  0
   -1.5199   -1.6678   -1.5445 C   0  0  0  0  0  0  0  0  0  0  0  0
   -2.1161   -2.3165   -2.4660 O   0  0  0  0  0  0  0  0  0  0  0  0
   -0.2141   -1.8141   -1.3656 N   0  0  0  0  0  0  0  0  0  0  0  0
    0.5533   -2.7226   -2.2258 C   0  0  0  0  0  0  0  0  0  0  0  0
    0.4357   -1.1458   -0.4068 C   0  0  0  0  0  0  0  0  0  0  0  0
    1.7656   -1.2823   -0.2099 N   0  0  0  0  0  0  0  0  0  0  0  0
    4.9810   -1.7719    1.0913 O   0  0  0  0  0  1  0  0  0  0  0  0
    4.9762   -0.3781    0.8994 C   0  0  0  0  0  0  0  0  0  0  0  0
    6.0950    0.1741    0.7850 O   0  0  0  0  0  0  0  0  0  0  0  0
    3.6600    0.3032    0.8483 C   0  0  0  0  0  0  0  0  0  0  0  0
    3.4876    1.1365   -0.4158 C   0  0  0  0  0  0  0  0  0  0  0  0
    2.1570    1.8335   -0.4496 C   0  0  0  0  0  0  0  0  0  0  0  0
    1.1125    0.8052   -0.3687 N   0  0  0  0  0  0  0  0  0  0  0  0
   -0.2510    1.1973   -0.3996 C   0  0  0  0  0  0  0  0  0  0  0  0
   -0.4770    2.4538   -0.5110 O   0  0  0  0  0  0  0  0  0  0  0  0
   -1.2909    0.1762   -0.3042 C   0  0  0  0  0  0  0  0  0  0  0  0
   -2.6969    0.6899   -0.3820 C   0  0  0  0  0  0  0  0  0  0  0  0
   -3.6109   -0.4693   -0.2563 C   0  0  0  0  0  0  0  0  0  0  0  0
   -3.3087   -1.8209   -0.0675 C   0  0  0  0  0  0  0  0  0  0  0  0
   -4.4450   -2.5457   -0.0071 N   0  0  0  0  0  0  0  0  0  0  0  0
   -5.4422   -1.6621   -0.1571 C   0  0  0  0  0  0  0  0  0  0  0  0
   -4.9467   -0.4242   -0.3050 N   0  0  0  0  0  0  0  0  0  0  0  0
  2  1  1  1
  2  3  1  0
  3  4  1  0
  4  5  1  0
  5  6  2  0
  6  7  1  0
  7  8  2  0
  2  9  1  0
  9 10  1  0
 10 11  2  0
 11 12  1  0
 12 13  2  0
 13 14  1  0
 14 15  2  0
 15 16  1  0
 16 17  1  0
 17 18  2  0
 18 19  1  0
 19 20  2  0
 20 21  1  0
 20 22  1  0
 22 23  2  0
 23 24  1  0
 15 25  1  0
 25 26  2  0
 25 27  1  0
 27 28  1  0
 27 29  1  0
 29 30  2  0
 31 32  1  0
 32 33  2  0
 32 34  1  0
 34 35  1  0
 35 36  1  0
 36 37  1  0
 37 38  1  0
 38 39  2  0
 38 40  1  0
 40 41  1  0
 41 42  1  0
 42 43  2  0
 43 44  1  0
 44 45  1  0
 45 46  2  0
  8  4  1  0
 30 10  1  0
 46 42  1  0
 29 13  1  0
 23 17  1  0
M  RAD  1  31   2
M  END

