
     RDKit          3D

 45 48  0  0  0  0  0  0  0  0999 V2000
   -5.8377   -2.1267   -1.1168 C   0  0  0  0  0  0  0  0  0  0  0  0
   -4.2306   -2.2907   -0.7440 C   0  0  2  0  0  0  0  0  0  0  0  0
   -4.4552   -2.0265    0.8680 C   0  0  0  0  0  0  0  0  0  0  0  0
   -5.0350   -0.7270    1.0223 N   0  0  0  0  0  0  0  0  0  0  0  0
   -6.3300   -0.4344    1.0419 N   0  0  0  0  0  0  0  0  0  0  0  0
   -6.4837    0.8865    1.2045 C   0  0  0  0  0  0  0  0  0  0  0  0
   -5.2641    1.4172    1.2864 N   0  0  0  0  0  0  0  0  0  0  0  0
   -4.4098    0.4250    1.1739 N   0  0  0  0  0  0  0  0  0  0  0  0
   -3.8839   -0.7895   -1.0827 N   0  0  0  0  0  0  0  0  0  0  0  0
   -2.4859   -0.4763   -0.8828 C   0  0  0  0  0  0  0  0  0  0  0  0
   -2.0039    0.7499   -1.1188 N   0  0  0  0  0  0  0  0  0  0  0  0
   -0.7236    1.1028   -0.9538 C   0  0  0  0  0  0  0  0  0  0  0  0
    0.1654    0.1431   -0.5107 C   0  0  0  0  0  0  0  0  0  0  0  0
    1.5141    0.4187   -0.3107 C   0  0  0  0  0  0  0  0  0  0  0  0
    2.3377   -0.5723    0.1277 C   0  0  0  0  0  0  0  0  0  0  0  0
    3.7058   -0.3868    0.3562 O   0  0  0  0  0  0  0  0  0  0  0  0
    4.3605    0.7980    0.1667 C   0  0  0  0  0  0  0  0  0  0  0  0
    4.9927    1.3781    1.2548 C   0  0  0  0  0  0  0  0  0  0  0  0
    5.6757    2.5903    1.1107 C   0  0  0  0  0  0  0  0  0  0  0  0
    5.7281    3.2220   -0.1143 C   0  0  0  0  0  0  0  0  0  0  0  0
    6.3948    4.4092   -0.2632 F   0  0  0  0  0  0  0  0  0  0  0  0
    5.0952    2.6355   -1.1903 C   0  0  0  0  0  0  0  0  0  0  0  0
    4.4129    1.4299   -1.0585 C   0  0  0  0  0  0  0  0  0  0  0  0
    3.7905    0.8556   -2.1224 F   0  0  0  0  0  0  0  0  0  0  0  0
    1.8260   -1.8248    0.3648 C   0  0  0  0  0  0  0  0  0  0  0  0
    2.5596   -2.7601    0.7695 O   0  0  0  0  0  0  0  0  0  0  0  0
    0.5088   -2.0962    0.1700 N   0  0  0  0  0  0  0  0  0  0  0  0
   -0.0112   -3.4238    0.4260 C   0  0  0  0  0  0  0  0  0  0  0  0
   -0.3082   -1.1272   -0.2609 C   0  0  0  0  0  0  0  0  0  0  0  0
   -1.6048   -1.3996   -0.4512 N   0  0  0  0  0  0  0  0  0  0  0  0
    4.4051    1.8350   -0.0168 N   0  0  0  0  0  0  0  0  0  0  0  0
    3.9808    0.5100   -0.3186 C   0  0  0  0  0  0  0  0  0  0  0  0
    4.5973   -0.5340    0.1243 N   0  0  0  0  0  4  0  0  0  0  0  0
    2.8438    0.3050   -1.1323 N   0  0  0  0  0  0  0  0  0  0  0  0
    2.3276   -0.9933   -1.5000 C   0  0  0  0  0  0  0  0  0  0  0  0
    1.9278   -1.8181   -0.3175 C   0  0  0  0  0  0  0  0  0  0  0  0
    0.8634   -1.1984    0.5232 C   0  0  0  0  0  0  0  0  0  0  0  0
   -0.4093   -0.9422   -0.1970 C   0  0  0  0  0  0  0  0  0  0  0  0
   -1.3911   -0.3281    0.7299 C   0  0  0  0  0  0  0  0  0  0  0  0
   -0.9884   -0.1364    1.9301 O   0  0  0  0  0  0  0  0  0  0  0  0
   -2.6978    0.0305    0.3294 N   0  0  0  0  0  0  0  0  0  0  0  0
   -3.6890    0.6255    1.1761 C   0  0  0  0  0  0  0  0  0  0  0  0
   -4.2543    1.7145    0.2760 C   0  0  0  0  0  0  0  0  0  0  0  0
   -4.2307    1.0517   -1.0719 C   0  0  0  0  0  0  0  0  0  0  0  0
   -3.2853   -0.1216   -0.9675 C   0  0  0  0  0  0  0  0  0  0  0  0
  2  1  1  6
  2  3  1  0
  3  4  1  0
  4  5  1  0
  5  6  2  0
  6  7  1  0
  7  8  2  0
  2  9  1  0
  9 10  1  0
 10 11  2  0
 11 12  1  0
 12 13  2  0
 13 14  1  0
 14 15  2  0
 15 16  1  0
 16 17  1  0
 17 18  2  0
 18 19  1  0
 19 20  2  0
 20 21  1  0
 20 22  1  0
 22 23  2  0
 23 24  1  0
 15 25  1  0
 25 26  2  0
 25 27  1  0
 27 28  1  0
 27 29  1  0
 29 30  2  0
 31 32  1  0
 32 33  2  0
 32 34  1  0
 34 35  1  0
 35 36  1  0
 36 37  1  0
 37 38  1  0
 38 39  1  0
 39 40  2  0
 39 41  1  0
 41 42  1  0
 42 43  1  0
 43 44  1  0
 44 45  1  0
  8  4  1  0
 30 10  1  0
 45 41  1  0
 29 13  1  0
 23 17  1  0
M  CHG  1  33   1
M  END

