
     RDKit          3D

 39 41  0  0  0  0  0  0  0  0999 V2000
    2.4325   -1.6449    0.1181 C   0  0  0  0  0  0  0  0  0  0  0  0
    1.6406   -0.4158    0.2623 C   0  0  0  0  0  0  0  0  0  0  0  0
    1.4569    0.0555    1.3949 O   0  0  0  0  0  0  0  0  0  0  0  0
    1.0973    0.2194   -0.8662 N   0  0  0  0  0  0  0  0  0  0  0  0
    0.3115    1.4339   -0.7524 C   0  0  0  0  0  0  0  0  0  0  0  0
   -0.9150    1.2387    0.0949 C   0  0  0  0  0  0  0  0  0  0  0  0
   -1.8414    0.1862   -0.4527 C   0  0  0  0  0  0  0  0  0  0  0  0
   -1.1362   -1.1436   -0.5325 C   0  0  0  0  0  0  0  0  0  0  0  0
   -3.0462    0.0705    0.4259 C   0  0  0  0  0  0  0  0  0  0  0  0
    5.9649    2.0486   -1.2777 C   0  0  0  0  0  0  0  0  0  0  0  0
    4.5546    2.5327   -0.5719 C   0  0  2  0  0  0  0  0  0  0  0  0
    5.0720    2.1794    0.9464 C   0  0  0  0  0  0  0  0  0  0  0  0
    5.3874    0.7961    1.0118 N   0  0  0  0  0  0  0  0  0  0  0  0
    4.4799   -0.1046    1.3523 N   0  0  0  0  0  0  0  0  0  0  0  0
    4.9928   -1.3342    1.3481 C   0  0  0  0  0  0  0  0  0  0  0  0
    6.2797   -1.1946    0.9884 N   0  0  0  0  0  0  0  0  0  0  0  0
    6.4868    0.0973    0.7930 N   0  0  0  0  0  0  0  0  0  0  0  0
    3.8381    1.1550   -0.8152 N   0  0  0  0  0  0  0  0  0  0  0  0
    2.4968    1.0921   -0.3380 C   0  0  0  0  0  0  0  0  0  0  0  0
    1.9212    2.1459    0.2674 N   0  0  0  0  0  0  0  0  0  0  0  0
    0.6603    2.1161    0.7269 C   0  0  0  0  0  0  0  0  0  0  0  0
   -0.1131    0.9595    0.5868 C   0  0  0  0  0  0  0  0  0  0  0  0
   -1.4089    0.9085    1.0515 C   0  0  0  0  0  0  0  0  0  0  0  0
   -2.1080   -0.2626    0.8782 C   0  0  0  0  0  0  0  0  0  0  0  0
   -3.4145   -0.3295    1.3410 O   0  0  0  0  0  0  0  0  0  0  0  0
   -4.4125   -0.5918    0.4090 C   0  0  0  0  0  0  0  0  0  0  0  0
   -5.2195   -1.7057    0.5270 C   0  0  0  0  0  0  0  0  0  0  0  0
   -6.2152   -1.9842   -0.3866 C   0  0  0  0  0  0  0  0  0  0  0  0
   -6.4487   -1.1553   -1.4651 C   0  0  0  0  0  0  0  0  0  0  0  0
   -7.4376   -1.4562   -2.3490 F   0  0  0  0  0  0  0  0  0  0  0  0
   -5.6474   -0.0400   -1.5912 C   0  0  0  0  0  0  0  0  0  0  0  0
   -4.6517    0.2328   -0.6722 C   0  0  0  0  0  0  0  0  0  0  0  0
   -3.8607    1.3263   -0.7895 F   0  0  0  0  0  0  0  0  0  0  0  0
   -1.4896   -1.3240    0.2540 C   0  0  0  0  0  0  0  0  0  0  0  0
   -2.1581   -2.3899    0.1083 O   0  0  0  0  0  0  0  0  0  0  0  0
   -0.2264   -1.2258   -0.1810 N   0  0  0  0  0  0  0  0  0  0  0  0
    0.3904   -2.3639   -0.8330 C   0  0  0  0  0  0  0  0  0  0  0  0
    0.5077   -0.1016   -0.0382 C   0  0  0  0  0  0  0  0  0  0  0  0
    1.7793   -0.0264   -0.4849 N   0  0  0  0  0  0  0  0  0  0  0  0
  1  2  1  0
  2  3  2  0
  2  4  1  0
  4  5  1  0
  5  6  1  0
  6  7  1  0
  7  8  1  0
  7  9  1  0
 11 10  1  6
 11 12  1  0
 12 13  1  0
 13 14  1  0
 14 15  2  0
 15 16  1  0
 16 17  2  0
 11 18  1  0
 18 19  1  0
 19 20  2  0
 20 21  1  0
 21 22  2  0
 22 23  1  0
 23 24  2  0
 24 25  1  0
 25 26  1  0
 26 27  2  0
 27 28  1  0
 28 29  2  0
 29 30  1  0
 29 31  1  0
 31 32  2  0
 32 33  1  0
 24 34  1  0
 34 35  2  0
 34 36  1  0
 36 37  1  0
 36 38  1  0
 38 39  2  0
 17 13  1  0
 39 19  1  0
 38 22  1  0
 32 26  1  0
M  END

