
     RDKit          3D

 40 42  0  0  0  0  0  0  0  0999 V2000
    3.0836    0.1582   -1.3216 C   0  0  0  0  0  0  0  0  0  0  0  0
    3.0979   -0.7894   -0.1518 C   0  0  0  0  0  0  0  0  0  0  0  0
    1.9780   -0.6400    0.7235 N   0  0  0  0  0  0  0  0  0  0  0  0
    0.6216   -0.8038    0.3458 C   0  0  0  0  0  0  0  0  0  0  0  0
    0.3787   -1.1029   -0.8466 O   0  0  0  0  0  0  0  0  0  0  0  0
   -0.4088   -0.6075    1.3961 C   0  0  0  0  0  0  0  0  0  0  0  0
   -1.8098   -0.8121    0.8596 C   0  0  0  0  0  0  0  0  0  0  0  0
   -2.0193    0.1924   -0.2377 C   0  0  0  0  0  0  0  0  0  0  0  0
   -3.3609    0.1274   -0.8800 C   0  0  0  0  0  0  0  0  0  0  0  0
   -1.5612    1.5731    0.1126 C   0  0  0  0  0  0  0  0  0  0  0  0
   -3.7811    0.7457    2.5017 C   0  0  0  0  0  0  0  0  0  0  0  0
   -4.3443    1.9677    1.5334 C   0  0  2  0  0  0  0  0  0  0  0  0
   -5.8897    1.3900    1.5155 C   0  0  0  0  0  0  0  0  0  0  0  0
   -5.8732    0.0859    0.9669 N   0  0  0  0  0  0  0  0  0  0  0  0
   -6.0129   -0.1700   -0.3435 N   0  0  0  0  0  0  0  0  0  0  0  0
   -5.9559   -1.4929   -0.5611 C   0  0  0  0  0  0  0  0  0  0  0  0
   -5.7776   -2.0615    0.6397 N   0  0  0  0  0  0  0  0  0  0  0  0
   -5.7317   -1.0967    1.5351 N   0  0  0  0  0  0  0  0  0  0  0  0
   -3.9101    1.2566    0.1975 N   0  0  0  0  0  0  0  0  0  0  0  0
   -2.4976    0.9948    0.0966 C   0  0  0  0  0  0  0  0  0  0  0  0
   -1.6923    1.3533    1.0896 N   0  0  0  0  0  0  0  0  0  0  0  0
   -0.3649    1.1580    1.0999 C   0  0  0  0  0  0  0  0  0  0  0  0
    0.1805    0.5424   -0.0035 C   0  0  0  0  0  0  0  0  0  0  0  0
    1.5478    0.3229   -0.0307 C   0  0  0  0  0  0  0  0  0  0  0  0
    2.0673   -0.2874   -1.1311 C   0  0  0  0  0  0  0  0  0  0  0  0
    3.4110   -0.5385   -1.2311 O   0  0  0  0  0  0  0  0  0  0  0  0
    4.3434   -0.2119   -0.2644 C   0  0  0  0  0  0  0  0  0  0  0  0
    4.0336    0.4101    0.9258 C   0  0  0  0  0  0  0  0  0  0  0  0
    5.0370    0.7063    1.8519 C   0  0  0  0  0  0  0  0  0  0  0  0
    6.3346    0.3804    1.5828 C   0  0  0  0  0  0  0  0  0  0  0  0
    7.3353    0.6475    2.4480 F   0  0  0  0  0  0  0  0  0  0  0  0
    6.6703   -0.2427    0.3985 C   0  0  0  0  0  0  0  0  0  0  0  0
    5.6599   -0.5256   -0.5023 C   0  0  0  0  0  0  0  0  0  0  0  0
    6.0063   -1.1323   -1.6494 F   0  0  0  0  0  0  0  0  0  0  0  0
    1.2348   -0.6589   -2.1596 C   0  0  0  0  0  0  0  0  0  0  0  0
    1.6946   -1.2200   -3.1769 O   0  0  0  0  0  0  0  0  0  0  0  0
   -0.0988   -0.4342   -2.1111 N   0  0  0  0  0  0  0  0  0  0  0  0
   -0.9790   -0.8265   -3.1975 C   0  0  0  0  0  0  0  0  0  0  0  0
   -0.6624    0.1707   -1.0355 C   0  0  0  0  0  0  0  0  0  0  0  0
   -1.9848    0.3945   -0.9853 N   0  0  0  0  0  0  0  0  0  0  0  0
  1  2  1  0
  2  3  1  0
  3  4  1  0
  4  5  2  0
  4  6  1  0
  6  7  1  0
  7  8  1  0
  8  9  1  0
  8 10  1  0
 12 11  1  1
 12 13  1  0
 13 14  1  0
 14 15  1  0
 15 16  2  0
 16 17  1  0
 17 18  2  0
 12 19  1  0
 19 20  1  0
 20 21  2  0
 21 22  1  0
 22 23  2  0
 23 24  1  0
 24 25  2  0
 25 26  1  0
 26 27  1  0
 27 28  2  0
 28 29  1  0
 29 30  2  0
 30 31  1  0
 30 32  1  0
 32 33  2  0
 33 34  1  0
 25 35  1  0
 35 36  2  0
 35 37  1  0
 37 38  1  0
 37 39  1  0
 39 40  2  0
 18 14  1  0
 40 20  1  0
 39 23  1  0
 33 27  1  0
M  END

