
     RDKit          3D

 42 44  0  0  0  0  0  0  0  0999 V2000
    3.2018   -1.1109   -0.6881 C   0  0  0  0  0  0  0  0  0  0  0  0
    3.4060   -0.5088    0.8496 C   0  0  1  0  0  0  0  0  0  0  0  0
    3.3267    0.9467    0.4161 O   0  0  0  0  0  0  0  0  0  0  0  0
    1.8168   -0.6502    1.2595 C   0  0  0  0  0  0  0  0  0  0  0  0
    1.0228    0.1310    0.3435 C   0  0  0  0  0  0  0  0  0  0  0  0
    1.5391    0.7310   -0.6294 O   0  0  0  0  0  0  0  0  0  0  0  0
   -0.4006    0.3071    0.4351 N   0  0  0  0  0  0  0  0  0  0  0  0
   -1.1438    1.1086   -0.5213 C   0  0  0  0  0  0  0  0  0  0  0  0
   -2.5773    1.0699   -0.1232 C   0  0  0  0  0  0  0  0  0  0  0  0
   -3.1519   -0.2844   -0.1089 C   0  0  0  0  0  0  0  0  0  0  0  0
   -4.4934   -0.4085    0.2540 O   0  0  0  0  0  1  0  0  0  0  0  0
   -2.5462   -1.3315   -0.3925 O   0  0  0  0  0  0  0  0  0  0  0  0
    4.5957    1.9520   -1.0805 C   0  0  0  0  0  0  0  0  0  0  0  0
    4.7224    2.3110    0.5219 C   0  0  2  0  0  0  0  0  0  0  0  0
    6.2243    1.6703    0.6705 C   0  0  0  0  0  0  0  0  0  0  0  0
    6.1560    0.2888    0.3176 N   0  0  0  0  0  0  0  0  0  0  0  0
    6.3315   -0.1754   -0.9022 N   0  0  0  0  0  0  0  0  0  0  0  0
    6.1990   -1.5138   -0.8760 C   0  0  0  0  0  0  0  0  0  0  0  0
    5.9367   -1.8916    0.3794 N   0  0  0  0  0  0  0  0  0  0  0  0
    5.9174   -0.7753    1.0780 N   0  0  0  0  0  0  0  0  0  0  0  0
    3.9591    1.0343    0.9919 N   0  0  0  0  0  0  0  0  0  0  0  0
    2.6291    0.9262    0.5075 C   0  0  0  0  0  0  0  0  0  0  0  0
    2.1454    1.8857   -0.2837 N   0  0  0  0  0  0  0  0  0  0  0  0
    0.8991    1.8527   -0.7796 C   0  0  0  0  0  0  0  0  0  0  0  0
    0.0853    0.7811   -0.4568 C   0  0  0  0  0  0  0  0  0  0  0  0
   -1.1675    0.7197   -0.9375 C   0  0  0  0  0  0  0  0  0  0  0  0
   -2.0294   -0.3819   -0.6159 C   0  0  0  0  0  0  0  0  0  0  0  0
   -3.2225   -0.2920   -1.1672 O   0  0  0  0  0  0  0  0  0  0  0  0
   -4.4954   -0.1702   -0.8059 C   0  0  0  0  0  0  0  0  0  0  0  0
   -5.1407    1.0715   -1.1523 C   0  0  0  0  0  0  0  0  0  0  0  0
   -6.4168    1.3067   -0.8441 C   0  0  0  0  0  0  0  0  0  0  0  0
   -7.1973    0.3856   -0.1791 C   0  0  0  0  0  0  0  0  0  0  0  0
   -8.4903    0.6556    0.1200 F   0  0  0  0  0  0  0  0  0  0  0  0
   -6.6165   -0.8017    0.1629 C   0  0  0  0  0  0  0  0  0  0  0  0
   -5.2730   -1.0670   -0.1546 C   0  0  0  0  0  0  0  0  0  0  0  0
   -4.7981   -2.2990    0.1887 F   0  0  0  0  0  0  0  0  0  0  0  0
   -1.4622   -1.3123    0.1906 C   0  0  0  0  0  0  0  0  0  0  0  0
   -2.1168   -2.3263    0.5389 O   0  0  0  0  0  0  0  0  0  0  0  0
   -0.1935   -1.2247    0.6623 N   0  0  0  0  0  0  0  0  0  0  0  0
    0.3353   -2.2660    1.5221 C   0  0  0  0  0  0  0  0  0  0  0  0
    0.6178   -0.1970    0.3660 C   0  0  0  0  0  0  0  0  0  0  0  0
    1.8658   -0.1471    0.8523 N   0  0  0  0  0  0  0  0  0  0  0  0
  2  1  1  6
  2  3  1  0
  2  4  1  0
  4  5  1  0
  5  6  2  0
  5  7  1  0
  7  8  1  0
  8  9  1  0
  9 10  1  0
 10 11  1  0
 10 12  2  0
 14 13  1  6
 14 15  1  0
 15 16  1  0
 16 17  1  0
 17 18  2  0
 18 19  1  0
 19 20  2  0
 14 21  1  0
 21 22  1  0
 22 23  2  0
 23 24  1  0
 24 25  2  0
 25 26  1  0
 26 27  2  0
 27 28  1  0
 28 29  1  0
 29 30  2  0
 30 31  1  0
 31 32  2  0
 32 33  1  0
 32 34  1  0
 34 35  2  0
 35 36  1  0
 27 37  1  0
 37 38  2  0
 37 39  1  0
 39 40  1  0
 39 41  1  0
 41 42  2  0
 20 16  1  0
 42 22  1  0
 41 25  1  0
 35 29  1  0
M  RAD  1  11   2
M  END

