
     RDKit          3D

 44 47  0  0  0  0  0  0  0  0999 V2000
   -5.4717   -0.6919    1.0491 C   0  0  0  0  0  0  0  0  0  0  0  0
   -4.7735    0.1836    0.0602 C   0  0  0  0  0  0  0  0  0  0  0  0
   -3.3100   -0.1143   -0.0040 C   0  0  0  0  0  0  0  0  0  0  0  0
   -2.7806   -1.0050    0.7102 O   0  0  0  0  0  0  0  0  0  0  0  0
   -2.4496    0.6000   -0.8794 N   0  0  0  0  0  0  0  0  0  0  0  0
   -1.0285    0.3464   -0.9753 C   0  0  0  0  0  0  0  0  0  0  0  0
   -0.3453    0.5697    0.3471 C   0  0  0  0  0  0  0  0  0  0  0  0
    1.0987    0.3037    0.2168 C   0  0  0  0  0  0  0  0  0  0  0  0
    1.9764    1.3073   -0.1315 C   0  0  0  0  0  0  0  0  0  0  0  0
    3.3327    1.1228   -0.2690 C   0  0  0  0  0  0  0  0  0  0  0  0
    3.8688   -0.1407   -0.0484 C   0  0  0  0  0  0  0  0  0  0  0  0
    5.2386   -0.3742   -0.1764 O   0  0  0  0  0  0  0  0  0  0  0  0
    3.0021   -1.1516    0.3001 C   0  0  0  0  0  0  0  0  0  0  0  0
    1.6419   -0.9557    0.4355 C   0  0  0  0  0  0  0  0  0  0  0  0
    5.9493   -1.5186    0.1620 C   0  0  0  0  0  0  0  0  0  0  0  0
    4.8028   -0.6293   -0.5950 C   0  0  2  0  0  0  0  0  0  0  0  0
    4.7410    0.4802    0.6233 C   0  0  0  0  0  0  0  0  0  0  0  0
    6.0938    1.0180    0.6912 N   0  0  0  0  0  0  0  0  0  0  0  0
    7.0622    0.5245    1.4421 N   0  0  0  0  0  0  0  0  0  0  0  0
    8.1740    1.2577    1.2651 C   0  0  0  0  0  0  0  0  0  0  0  0
    7.8693    2.2244    0.3801 N   0  0  0  0  0  0  0  0  0  0  0  0
    6.5997    2.0555    0.0480 N   0  0  0  0  0  0  0  0  0  0  0  0
    3.6268   -1.4670   -0.0086 N   0  0  0  0  0  0  0  0  0  0  0  0
    2.3231   -1.0231   -0.4276 C   0  0  0  0  0  0  0  0  0  0  0  0
    2.1440    0.0233   -1.2527 N   0  0  0  0  0  0  0  0  0  0  0  0
    0.9320    0.4493   -1.6526 C   0  0  0  0  0  0  0  0  0  0  0  0
   -0.1590   -0.2470   -1.1716 C   0  0  0  0  0  0  0  0  0  0  0  0
   -1.4319    0.1289   -1.5359 C   0  0  0  0  0  0  0  0  0  0  0  0
   -2.5639   -0.5462   -1.0737 C   0  0  0  0  0  0  0  0  0  0  0  0
   -3.7786   -0.0865   -1.5000 O   0  0  0  0  0  0  0  0  0  0  0  0
   -4.7917    0.3799   -0.6822 C   0  0  0  0  0  0  0  0  0  0  0  0
   -6.0439   -0.1925   -0.6366 C   0  0  0  0  0  0  0  0  0  0  0  0
   -7.0216    0.3078    0.1947 C   0  0  0  0  0  0  0  0  0  0  0  0
   -6.8045    1.3946    1.0164 C   0  0  0  0  0  0  0  0  0  0  0  0
   -7.7722    1.8868    1.8367 F   0  0  0  0  0  0  0  0  0  0  0  0
   -5.5470    1.9606    0.9631 C   0  0  0  0  0  0  0  0  0  0  0  0
   -4.5590    1.4693    0.1350 C   0  0  0  0  0  0  0  0  0  0  0  0
   -3.3144    2.0475    0.0975 F   0  0  0  0  0  0  0  0  0  0  0  0
   -2.3593   -1.6068   -0.2361 C   0  0  0  0  0  0  0  0  0  0  0  0
   -3.3712   -2.2295    0.1920 O   0  0  0  0  0  0  0  0  0  0  0  0
   -1.0945   -1.9700    0.1179 N   0  0  0  0  0  0  0  0  0  0  0  0
   -0.9335   -3.1126    1.0168 C   0  0  0  0  0  0  0  0  0  0  0  0
   -0.0189   -1.3125   -0.3338 C   0  0  0  0  0  0  0  0  0  0  0  0
    1.2469   -1.6669    0.0133 N   0  0  0  0  0  0  0  0  0  0  0  0
  1  2  1  0
  2  3  1  0
  3  4  2  0
  3  5  1  0
  5  6  1  0
  6  7  1  0
  7  8  1  0
  8  9  2  0
  9 10  1  0
 10 11  2  0
 11 12  1  0
 11 13  1  0
 13 14  2  0
 16 15  1  1
 16 17  1  0
 17 18  1  0
 18 19  1  0
 19 20  2  0
 20 21  1  0
 21 22  2  0
 16 23  1  0
 23 24  1  0
 24 25  2  0
 25 26  1  0
 26 27  2  0
 27 28  1  0
 28 29  2  0
 29 30  1  0
 30 31  1  0
 31 32  2  0
 32 33  1  0
 33 34  2  0
 34 35  1  0
 34 36  1  0
 36 37  2  0
 37 38  1  0
 29 39  1  0
 39 40  2  0
 39 41  1  0
 41 42  1  0
 41 43  1  0
 43 44  2  0
 14  8  1  0
 22 18  1  0
 44 24  1  0
 43 27  1  0
 37 31  1  0
M  END

