
     RDKit          3D

 43 46  0  0  0  0  0  0  0  0999 V2000
    3.5918   -0.5937    0.2173 C   0  0  0  0  0  0  0  0  0  0  0  0
    4.3076    0.8909    0.4268 C   0  0  2  0  0  0  0  0  0  0  0  0
    5.6271    0.2392    1.1948 C   0  0  0  0  0  0  0  0  0  0  0  0
    6.1456   -0.6448    0.1685 N   0  0  0  0  0  0  0  0  0  0  0  0
    5.7640   -1.9074    0.0553 N   0  0  0  0  0  0  0  0  0  0  0  0
    6.4077   -2.4697   -0.9758 C   0  0  0  0  0  0  0  0  0  0  0  0
    7.2036   -1.5411   -1.5134 N   0  0  0  0  0  0  0  0  0  0  0  0
    7.0128   -0.4438   -0.7853 N   0  0  0  0  0  0  0  0  0  0  0  0
    3.5684    1.2233    1.7797 N   0  0  0  0  0  0  0  0  0  0  0  0
    2.1623    1.2804    1.7661 C   0  0  0  0  0  0  0  0  0  0  0  0
    1.3981    1.5467    2.8165 N   0  0  0  0  0  0  0  0  0  0  0  0
    0.0600    1.5725    2.6750 C   0  0  0  0  0  0  0  0  0  0  0  0
   -0.5724    1.3341    1.4810 C   0  0  0  0  0  0  0  0  0  0  0  0
   -1.9468    1.3560    1.3146 C   0  0  0  0  0  0  0  0  0  0  0  0
   -2.5232    1.1067    0.0821 C   0  0  0  0  0  0  0  0  0  0  0  0
   -3.9123    1.1322   -0.0707 O   0  0  0  0  0  0  0  0  0  0  0  0
   -4.6136    0.0269   -0.4980 C   0  0  0  0  0  0  0  0  0  0  0  0
   -5.3833    0.0139   -1.6462 C   0  0  0  0  0  0  0  0  0  0  0  0
   -6.0782   -1.0978   -2.0604 C   0  0  0  0  0  0  0  0  0  0  0  0
   -6.0199   -2.2552   -1.3177 C   0  0  0  0  0  0  0  0  0  0  0  0
   -6.6928   -3.3838   -1.6892 F   0  0  0  0  0  0  0  0  0  0  0  0
   -5.2594   -2.2665   -0.1695 C   0  0  0  0  0  0  0  0  0  0  0  0
   -4.5737   -1.1431    0.2242 C   0  0  0  0  0  0  0  0  0  0  0  0
   -3.8095   -1.1375    1.3683 F   0  0  0  0  0  0  0  0  0  0  0  0
   -1.6826    0.8343   -0.9812 C   0  0  0  0  0  0  0  0  0  0  0  0
   -2.1451    0.5991   -2.1285 O   0  0  0  0  0  0  0  0  0  0  0  0
   -0.3487    0.8183   -0.7962 N   0  0  0  0  0  0  0  0  0  0  0  0
    0.5240    0.5314   -1.9186 C   0  0  0  0  0  0  0  0  0  0  0  0
    0.2298    1.0579    0.3927 C   0  0  0  0  0  0  0  0  0  0  0  0
    1.5587    1.0444    0.5880 N   0  0  0  0  0  0  0  0  0  0  0  0
    0.1051   -1.3008    0.0634 O   0  0  0  0  0  0  0  0  0  0  0  0
    0.6983   -0.5008   -0.7083 C   0  0  0  0  0  0  0  0  0  0  0  0
   -0.0344    0.2576   -1.7743 C   0  0  0  0  0  0  0  0  0  0  0  0
   -1.4826   -0.0521   -1.7576 C   0  0  0  0  0  0  0  0  0  0  0  0
   -2.1051    0.3143   -0.4501 C   0  0  0  0  0  0  0  0  0  0  0  0
   -1.4767    0.8755    0.6273 C   0  0  0  0  0  0  0  0  0  0  0  0
   -2.4023    1.0345    1.5781 N   0  0  0  0  0  0  0  0  0  0  0  0
   -3.5747    0.5896    1.1183 C   0  0  0  0  0  0  0  0  0  0  0  0
   -3.3851    0.1499   -0.1247 N   0  0  0  0  0  0  0  0  0  0  0  0
    2.0971   -0.3525   -0.5188 N   0  0  0  0  0  0  0  0  0  0  0  0
    2.7742   -1.1066    0.5277 C   0  0  0  0  0  0  0  0  0  0  0  0
    4.2348   -0.8322    0.5874 C   0  0  0  0  0  0  0  0  0  0  0  0
    4.5513    0.4813    0.8317 O   0  0  0  0  0  0  0  0  0  0  0  0
  2  1  1  6
  2  3  1  0
  3  4  1  0
  4  5  1  0
  5  6  2  0
  6  7  1  0
  7  8  2  0
  2  9  1  0
  9 10  1  0
 10 11  2  0
 11 12  1  0
 12 13  2  0
 13 14  1  0
 14 15  2  0
 15 16  1  0
 16 17  1  0
 17 18  2  0
 18 19  1  0
 19 20  2  0
 20 21  1  0
 20 22  1  0
 22 23  2  0
 23 24  1  0
 15 25  1  0
 25 26  2  0
 25 27  1  0
 27 28  1  0
 27 29  1  0
 29 30  2  0
 31 32  2  0
 32 33  1  0
 33 34  1  0
 34 35  1  0
 35 36  2  0
 36 37  1  0
 37 38  1  0
 38 39  2  0
 32 40  1  0
 40 41  1  0
 41 42  1  0
 42 43  1  0
  8  4  1  0
 30 10  1  0
 39 35  1  0
 29 13  1  0
 23 17  1  0
M  END

