
     RDKit          3D

 41 43  0  0  0  0  0  0  0  0999 V2000
    2.9879    1.9540   -0.1413 C   0  0  0  0  0  0  0  0  0  0  0  0
    3.0231    0.4860   -0.0078 C   0  0  0  0  0  0  0  0  0  0  0  0
    3.5907   -0.2547   -1.1766 C   0  0  0  0  0  0  0  0  0  0  0  0
    1.9022   -0.1890    0.6204 C   0  0  0  0  0  0  0  0  0  0  0  0
    0.5830   -0.0119   -0.0348 C   0  0  0  0  0  0  0  0  0  0  0  0
    0.6013    0.7102   -1.0656 O   0  0  0  0  0  0  0  0  0  0  0  0
   -0.5974   -0.6054    0.4581 N   0  0  0  0  0  0  0  0  0  0  0  0
   -1.8162   -0.3368   -0.2980 C   0  0  0  0  0  0  0  0  0  0  0  0
   -2.9603   -1.1599    0.5355 C   0  0  1  0  0  0  0  0  0  0  0  0
   -3.2553    0.1287    1.5382 C   0  0  0  0  0  0  0  0  0  0  0  0
   -4.0589   -0.7212   -0.4280 O   0  0  0  0  0  0  0  0  0  0  0  0
    5.0745   -0.3755    1.0855 C   0  0  0  0  0  0  0  0  0  0  0  0
    4.8620   -1.7899    0.2438 C   0  0  2  0  0  0  0  0  0  0  0  0
    4.2357   -1.0357   -1.0844 C   0  0  0  0  0  0  0  0  0  0  0  0
    5.2597   -0.1453   -1.5342 N   0  0  0  0  0  0  0  0  0  0  0  0
    6.2173   -0.3956   -2.3922 N   0  0  0  0  0  0  0  0  0  0  0  0
    6.9566    0.7299   -2.5219 C   0  0  0  0  0  0  0  0  0  0  0  0
    6.4240    1.6719   -1.7203 N   0  0  0  0  0  0  0  0  0  0  0  0
    5.3923    1.0969   -1.1371 N   0  0  0  0  0  0  0  0  0  0  0  0
    3.4568   -2.1561    0.8294 N   0  0  0  0  0  0  0  0  0  0  0  0
    2.3925   -1.3063    0.7370 C   0  0  0  0  0  0  0  0  0  0  0  0
    2.5300   -0.1079    0.1292 N   0  0  0  0  0  0  0  0  0  0  0  0
    1.5241    0.7747    0.0043 C   0  0  0  0  0  0  0  0  0  0  0  0
    0.2809    0.4698    0.5109 C   0  0  0  0  0  0  0  0  0  0  0  0
   -0.7931    1.3148    0.4236 C   0  0  0  0  0  0  0  0  0  0  0  0
   -1.9844    0.9107    0.9622 C   0  0  0  0  0  0  0  0  0  0  0  0
   -3.1033    1.7521    0.8897 O   0  0  0  0  0  0  0  0  0  0  0  0
   -4.2177    1.2658    0.2205 C   0  0  0  0  0  0  0  0  0  0  0  0
   -5.4407    1.1204    0.8545 C   0  0  0  0  0  0  0  0  0  0  0  0
   -6.5361    0.6340    0.1671 C   0  0  0  0  0  0  0  0  0  0  0  0
   -6.4627    0.2756   -1.1656 C   0  0  0  0  0  0  0  0  0  0  0  0
   -7.5533   -0.2010   -1.8232 F   0  0  0  0  0  0  0  0  0  0  0  0
   -5.2359    0.4273   -1.7812 C   0  0  0  0  0  0  0  0  0  0  0  0
   -4.1303    0.9106   -1.1140 C   0  0  0  0  0  0  0  0  0  0  0  0
   -2.9203    1.0586   -1.7272 F   0  0  0  0  0  0  0  0  0  0  0  0
   -2.1067   -0.3118    1.5770 C   0  0  0  0  0  0  0  0  0  0  0  0
   -3.2032   -0.7085    2.0844 O   0  0  0  0  0  0  0  0  0  0  0  0
   -1.0691   -1.1214    1.6581 N   0  0  0  0  0  0  0  0  0  0  0  0
   -1.1596   -2.4148    2.2972 C   0  0  0  0  0  0  0  0  0  0  0  0
    0.1313   -0.7525    1.1336 C   0  0  0  0  0  0  0  0  0  0  0  0
    1.1789   -1.5908    1.2255 N   0  0  0  0  0  0  0  0  0  0  0  0
  1  2  1  0
  2  3  1  0
  2  4  1  0
  4  5  1  0
  5  6  2  0
  5  7  1  0
  7  8  1  0
  8  9  1  0
  9 10  1  1
  9 11  1  0
 13 12  1  1
 13 14  1  0
 14 15  1  0
 15 16  1  0
 16 17  2  0
 17 18  1  0
 18 19  2  0
 13 20  1  0
 20 21  1  0
 21 22  2  0
 22 23  1  0
 23 24  2  0
 24 25  1  0
 25 26  2  0
 26 27  1  0
 27 28  1  0
 28 29  2  0
 29 30  1  0
 30 31  2  0
 31 32  1  0
 31 33  1  0
 33 34  2  0
 34 35  1  0
 26 36  1  0
 36 37  2  0
 36 38  1  0
 38 39  1  0
 38 40  1  0
 40 41  2  0
 19 15  1  0
 41 21  1  0
 40 24  1  0
 34 28  1  0
M  END

