
     RDKit          3D

 50 54  0  0  0  0  0  0  0  0999 V2000
    3.5949   -2.3083    1.0851 C   0  0  0  0  0  0  0  0  0  0  0  0
    4.1063   -2.6027   -0.4683 C   0  0  2  0  0  0  0  0  0  0  0  0
    5.6948   -2.3353   -0.0822 C   0  0  0  0  0  0  0  0  0  0  0  0
    5.8459   -1.0366    0.3984 N   0  0  0  0  0  0  0  0  0  0  0  0
    6.1135    0.0669   -0.2855 N   0  0  0  0  0  0  0  0  0  0  0  0
    6.1829    1.1314    0.5354 C   0  0  0  0  0  0  0  0  0  0  0  0
    5.9465    0.6449    1.7671 N   0  0  0  0  0  0  0  0  0  0  0  0
    5.7489   -0.6428    1.6654 N   0  0  0  0  0  0  0  0  0  0  0  0
    3.7570   -1.1297   -0.9442 N   0  0  0  0  0  0  0  0  0  0  0  0
    2.3514   -0.8097   -0.7808 C   0  0  0  0  0  0  0  0  0  0  0  0
    1.4855   -1.7047   -0.2753 N   0  0  0  0  0  0  0  0  0  0  0  0
    0.1748   -1.5007   -0.0879 C   0  0  0  0  0  0  0  0  0  0  0  0
   -0.3091   -0.2399   -0.4582 C   0  0  0  0  0  0  0  0  0  0  0  0
   -1.6400    0.0763   -0.3083 C   0  0  0  0  0  0  0  0  0  0  0  0
   -2.1127    1.3198   -0.6745 C   0  0  0  0  0  0  0  0  0  0  0  0
   -3.4294    1.6562   -0.5349 O   0  0  0  0  0  0  0  0  0  0  0  0
   -4.4189    0.8587   -0.0408 C   0  0  0  0  0  0  0  0  0  0  0  0
   -5.1249    1.2501    1.0817 C   0  0  0  0  0  0  0  0  0  0  0  0
   -6.1441    0.4690    1.6232 C   0  0  0  0  0  0  0  0  0  0  0  0
   -6.4715   -0.7348    1.0334 C   0  0  0  0  0  0  0  0  0  0  0  0
   -7.4482   -1.5395    1.5071 F   0  0  0  0  0  0  0  0  0  0  0  0
   -5.7732   -1.1467   -0.0968 C   0  0  0  0  0  0  0  0  0  0  0  0
   -4.7695   -0.3556   -0.6124 C   0  0  0  0  0  0  0  0  0  0  0  0
   -4.1233   -0.8035   -1.7117 F   0  0  0  0  0  0  0  0  0  0  0  0
   -1.1923    2.2089   -1.1888 C   0  0  0  0  0  0  0  0  0  0  0  0
   -1.6536    3.3506   -1.5194 O   0  0  0  0  0  0  0  0  0  0  0  0
    0.1079    1.9088   -1.3384 N   0  0  0  0  0  0  0  0  0  0  0  0
    1.0373    2.8745   -1.8829 C   0  0  0  0  0  0  0  0  0  0  0  0
    0.5782    0.6770   -0.9762 C   0  0  0  0  0  0  0  0  0  0  0  0
    1.8849    0.3975   -1.1348 N   0  0  0  0  0  0  0  0  0  0  0  0
    6.6007   -1.1705   -0.8357 O   0  0  0  0  0  1  0  0  0  0  0  0
    5.4881   -0.5280   -0.3303 C   0  0  0  0  0  0  0  0  0  0  0  0
    5.1402    0.5682   -0.8215 O   0  0  0  0  0  0  0  0  0  0  0  0
    4.7009   -1.1039    0.7748 C   0  0  0  0  0  0  0  0  0  0  0  0
    3.5471   -0.1961    1.1328 C   0  0  0  0  0  0  0  0  0  0  0  0
    2.6078    0.0240   -0.0226 C   0  0  0  0  0  0  0  0  0  0  0  0
    1.5047    0.9329    0.4431 C   0  0  0  0  0  0  0  0  0  0  0  0
    1.4847    1.3685    1.6346 O   0  0  0  0  0  0  0  0  0  0  0  0
    0.4562    1.3294   -0.4339 N   0  0  0  0  0  0  0  0  0  0  0  0
   -0.5764    2.2205    0.1201 C   0  0  0  0  0  0  0  0  0  0  0  0
   -1.1799    1.4240    1.2752 C   0  0  0  0  0  0  0  0  0  0  0  0
   -1.7446    0.1715    0.6913 C   0  0  0  0  0  0  0  0  0  0  0  0
   -1.2755   -1.1109    0.6945 C   0  0  0  0  0  0  0  0  0  0  0  0
   -2.1566   -1.8821    0.0242 N   0  0  0  0  0  0  0  0  0  0  0  0
   -3.1885   -1.1281   -0.4141 C   0  0  0  0  0  0  0  0  0  0  0  0
   -4.3441   -1.3589   -1.1291 C   0  0  0  0  0  0  0  0  0  0  0  0
   -5.2495   -0.3701   -1.4446 C   0  0  0  0  0  0  0  0  0  0  0  0
   -5.0108    0.9223   -1.0369 C   0  0  0  0  0  0  0  0  0  0  0  0
   -3.8572    1.1739   -0.3187 C   0  0  0  0  0  0  0  0  0  0  0  0
   -2.9474    0.1724   -0.0032 C   0  0  0  0  0  0  0  0  0  0  0  0
  2  1  1  1
  2  3  1  0
  3  4  1  0
  4  5  1  0
  5  6  2  0
  6  7  1  0
  7  8  2  0
  2  9  1  0
  9 10  1  0
 10 11  2  0
 11 12  1  0
 12 13  2  0
 13 14  1  0
 14 15  2  0
 15 16  1  0
 16 17  1  0
 17 18  2  0
 18 19  1  0
 19 20  2  0
 20 21  1  0
 20 22  1  0
 22 23  2  0
 23 24  1  0
 15 25  1  0
 25 26  2  0
 25 27  1  0
 27 28  1  0
 27 29  1  0
 29 30  2  0
 31 32  1  0
 32 33  2  0
 32 34  1  0
 34 35  1  0
 35 36  1  0
 36 37  1  0
 37 38  2  0
 37 39  1  0
 39 40  1  0
 40 41  1  0
 41 42  1  0
 42 43  2  0
 43 44  1  0
 44 45  1  0
 45 46  2  0
 46 47  1  0
 47 48  2  0
 48 49  1  0
 49 50  2  0
  8  4  1  0
 30 10  1  0
 50 42  1  0
 29 13  1  0
 50 45  1  0
 23 17  1  0
M  RAD  1  31   2
M  END

