
     RDKit          3D

 43 45  0  0  0  0  0  0  0  0999 V2000
   -4.6774   -2.9412   -0.1246 C   0  0  0  0  0  0  0  0  0  0  0  0
   -5.1537   -1.4196    0.3269 C   0  0  2  0  0  0  0  0  0  0  0  0
   -4.5114   -0.7237   -1.0258 C   0  0  0  0  0  0  0  0  0  0  0  0
   -4.8033    0.6890   -0.8789 N   0  0  0  0  0  0  0  0  0  0  0  0
   -4.0547    1.5941   -0.2983 N   0  0  0  0  0  0  0  0  0  0  0  0
   -4.6771    2.7669   -0.3739 C   0  0  0  0  0  0  0  0  0  0  0  0
   -5.8341    2.5869   -1.0137 N   0  0  0  0  0  0  0  0  0  0  0  0
   -5.8814    1.3036   -1.3097 N   0  0  0  0  0  0  0  0  0  0  0  0
   -3.8995   -1.1254    1.2188 N   0  0  0  0  0  0  0  0  0  0  0  0
   -2.6167   -1.1986    0.7242 C   0  0  0  0  0  0  0  0  0  0  0  0
   -2.4335   -1.5382   -0.5717 N   0  0  0  0  0  0  0  0  0  0  0  0
   -1.2228   -1.6367   -1.1482 C   0  0  0  0  0  0  0  0  0  0  0  0
   -0.1230   -1.3676   -0.3377 C   0  0  0  0  0  0  0  0  0  0  0  0
    1.1470   -1.4379   -0.8196 C   0  0  0  0  0  0  0  0  0  0  0  0
    2.1943   -1.1614    0.0280 C   0  0  0  0  0  0  0  0  0  0  0  0
    3.5208   -1.2216   -0.4265 O   0  0  0  0  0  0  0  0  0  0  0  0
    4.2461   -0.0436   -0.3350 C   0  0  0  0  0  0  0  0  0  0  0  0
    5.4052    0.0484    0.4160 C   0  0  0  0  0  0  0  0  0  0  0  0
    6.1114    1.2149    0.4985 C   0  0  0  0  0  0  0  0  0  0  0  0
    5.6729    2.3208   -0.1708 C   0  0  0  0  0  0  0  0  0  0  0  0
    6.3339    3.4991   -0.1227 F   0  0  0  0  0  0  0  0  0  0  0  0
    4.5102    2.2394   -0.9278 C   0  0  0  0  0  0  0  0  0  0  0  0
    3.7989    1.0543   -1.0075 C   0  0  0  0  0  0  0  0  0  0  0  0
    2.6517    0.9857   -1.7583 F   0  0  0  0  0  0  0  0  0  0  0  0
    1.9856   -0.8168    1.3466 C   0  0  0  0  0  0  0  0  0  0  0  0
    2.9676   -0.5625    2.1228 O   0  0  0  0  0  0  0  0  0  0  0  0
    0.7216   -0.7547    1.7972 N   0  0  0  0  0  0  0  0  0  0  0  0
    0.4993   -0.3872    3.2036 C   0  0  0  0  0  0  0  0  0  0  0  0
   -0.3176   -1.0214    0.9847 C   0  0  0  0  0  0  0  0  0  0  0  0
   -1.5604   -0.9449    1.4851 N   0  0  0  0  0  0  0  0  0  0  0  0
   -3.4507    1.1939    1.0644 O   0  0  0  0  0  1  0  0  0  0  0  0
   -3.1157    0.2941    0.0683 C   0  0  0  0  0  0  0  0  0  0  0  0
   -2.8957   -0.9183    0.3445 O   0  0  0  0  0  0  0  0  0  0  0  0
   -3.0166    0.7532   -1.3123 C   0  0  0  0  0  0  0  0  0  0  0  0
   -1.8455    1.5177   -1.6821 C   0  0  0  0  0  0  0  0  0  0  0  0
   -0.5383    0.9937   -1.5523 N   0  0  0  0  0  0  0  0  0  0  0  0
    0.1585    0.5968   -0.3966 C   0  0  0  0  0  0  0  0  0  0  0  0
   -0.4117    0.7105    0.7138 O   0  0  0  0  0  0  0  0  0  0  0  0
    1.5451    0.0457   -0.4225 C   0  0  0  0  0  0  0  0  0  0  0  0
    2.0548   -0.2995    0.9282 C   0  0  0  0  0  0  0  0  0  0  0  0
    3.4320   -0.8377    0.8162 C   0  0  0  0  0  0  0  0  0  0  0  0
    4.0180   -0.9357   -0.4375 O   0  0  0  0  0  1  0  0  0  0  0  0
    4.0659   -1.2051    1.8677 O   0  0  0  0  0  0  0  0  0  0  0  0
  2  1  1  6
  2  3  1  0
  3  4  1  0
  4  5  1  0
  5  6  2  0
  6  7  1  0
  7  8  2  0
  2  9  1  0
  9 10  1  0
 10 11  2  0
 11 12  1  0
 12 13  2  0
 13 14  1  0
 14 15  2  0
 15 16  1  0
 16 17  1  0
 17 18  2  0
 18 19  1  0
 19 20  2  0
 20 21  1  0
 20 22  1  0
 22 23  2  0
 23 24  1  0
 15 25  1  0
 25 26  2  0
 25 27  1  0
 27 28  1  0
 27 29  1  0
 29 30  2  0
 31 32  1  0
 32 33  2  0
 32 34  1  0
 34 35  1  0
 35 36  1  0
 36 37  1  0
 37 38  2  0
 37 39  1  0
 39 40  1  0
 40 41  1  0
 41 42  1  0
 41 43  2  0
  8  4  1  0
 30 10  1  0
 29 13  1  0
 23 17  1  0
M  RAD  2  31   2  42   2
M  END

