
     RDKit          3D

 47 50  0  0  0  0  0  0  0  0999 V2000
    4.1274   -0.1354   -2.1497 C   0  0  0  0  0  0  0  0  0  0  0  0
    4.1700   -0.5388   -0.6996 C   0  0  0  0  0  0  0  0  0  0  0  0
    4.4448    0.8210    0.1468 C   0  0  2  0  0  0  0  0  0  0  0  0
    4.4314    0.0673    1.5808 C   0  0  0  0  0  0  0  0  0  0  0  0
    2.8960    1.2728    0.1598 C   0  0  0  0  0  0  0  0  0  0  0  0
    2.1224    0.2790    0.7939 N   0  0  0  0  0  0  0  0  0  0  0  0
    0.7325    0.3016    1.0023 C   0  0  0  0  0  0  0  0  0  0  0  0
    0.1579    1.3311    0.5635 O   0  0  0  0  0  0  0  0  0  0  0  0
   -0.0383   -0.7552    1.6682 C   0  0  0  0  0  0  0  0  0  0  0  0
   -1.4938   -0.5729    1.7575 C   0  0  0  0  0  0  0  0  0  0  0  0
   -2.2041   -0.4714    0.4762 C   0  0  0  0  0  0  0  0  0  0  0  0
   -2.6786   -1.5810   -0.1983 C   0  0  0  0  0  0  0  0  0  0  0  0
   -3.3430   -1.4333   -1.3819 C   0  0  0  0  0  0  0  0  0  0  0  0
   -3.5719   -0.1850   -1.9579 C   0  0  0  0  0  0  0  0  0  0  0  0
   -4.2490   -0.0646   -3.1598 O   0  0  0  0  0  0  0  0  0  0  0  0
   -3.0862    0.8978   -1.2600 C   0  0  0  0  0  0  0  0  0  0  0  0
   -2.4176    0.7670   -0.0716 C   0  0  0  0  0  0  0  0  0  0  0  0
    2.9242   -0.5448   -2.5034 C   0  0  0  0  0  0  0  0  0  0  0  0
    4.1022    0.1119   -1.5417 C   0  0  2  0  0  0  0  0  0  0  0  0
    5.2973   -0.8443   -2.1961 C   0  0  0  0  0  0  0  0  0  0  0  0
    6.4328   -0.3604   -1.4189 N   0  0  0  0  0  0  0  0  0  0  0  0
    7.2303    0.6385   -1.7382 N   0  0  0  0  0  0  0  0  0  0  0  0
    8.1796    0.8008   -0.7705 C   0  0  0  0  0  0  0  0  0  0  0  0
    7.9281   -0.1359    0.1461 N   0  0  0  0  0  0  0  0  0  0  0  0
    6.8878   -0.8174   -0.2533 N   0  0  0  0  0  0  0  0  0  0  0  0
    3.8604   -0.8689   -0.3303 N   0  0  0  0  0  0  0  0  0  0  0  0
    2.5651   -0.8411    0.2421 C   0  0  0  0  0  0  0  0  0  0  0  0
    2.1989   -1.6120    1.2764 N   0  0  0  0  0  0  0  0  0  0  0  0
    0.9457   -1.5722    1.8156 C   0  0  0  0  0  0  0  0  0  0  0  0
    0.0231   -0.7175    1.2879 C   0  0  0  0  0  0  0  0  0  0  0  0
   -1.2682   -0.6596    1.8247 C   0  0  0  0  0  0  0  0  0  0  0  0
   -2.1986    0.2056    1.2889 C   0  0  0  0  0  0  0  0  0  0  0  0
   -3.4981    0.3348    1.7497 O   0  0  0  0  0  0  0  0  0  0  0  0
   -4.6217    0.1083    1.0108 C   0  0  0  0  0  0  0  0  0  0  0  0
   -4.5017   -0.2787   -0.2935 C   0  0  0  0  0  0  0  0  0  0  0  0
   -5.6271   -0.5249   -1.0987 C   0  0  0  0  0  0  0  0  0  0  0  0
   -6.8744   -0.3670   -0.5424 C   0  0  0  0  0  0  0  0  0  0  0  0
   -7.9433   -0.6109   -1.3410 F   0  0  0  0  0  0  0  0  0  0  0  0
   -6.9766    0.0204    0.7630 C   0  0  0  0  0  0  0  0  0  0  0  0
   -5.8651    0.2611    1.5501 C   0  0  0  0  0  0  0  0  0  0  0  0
   -6.0844    0.6425    2.8374 F   0  0  0  0  0  0  0  0  0  0  0  0
   -1.8018    0.9875    0.2282 C   0  0  0  0  0  0  0  0  0  0  0  0
   -2.6083    1.7761   -0.2796 O   0  0  0  0  0  0  0  0  0  0  0  0
   -0.5482    0.9335   -0.2955 N   0  0  0  0  0  0  0  0  0  0  0  0
   -0.1398    1.7590   -1.4105 C   0  0  0  0  0  0  0  0  0  0  0  0
    0.3640    0.0817    0.2338 C   0  0  0  0  0  0  0  0  0  0  0  0
    1.6178   -0.0160   -0.2410 N   0  0  0  0  0  0  0  0  0  0  0  0
  1  2  1  0
  2  3  1  0
  3  4  1  1
  3  5  1  0
  5  6  1  0
  6  7  1  0
  7  8  2  0
  7  9  1  0
  9 10  1  0
 10 11  1  0
 11 12  2  0
 12 13  1  0
 13 14  2  0
 14 15  1  0
 14 16  1  0
 16 17  2  0
 19 18  1  6
 19 20  1  0
 20 21  1  0
 21 22  1  0
 22 23  2  0
 23 24  1  0
 24 25  2  0
 19 26  1  0
 26 27  1  0
 27 28  2  0
 28 29  1  0
 29 30  2  0
 30 31  1  0
 31 32  2  0
 32 33  1  0
 33 34  1  0
 34 35  2  0
 35 36  1  0
 36 37  2  0
 37 38  1  0
 37 39  1  0
 39 40  2  0
 40 41  1  0
 32 42  1  0
 42 43  2  0
 42 44  1  0
 44 45  1  0
 44 46  1  0
 46 47  2  0
 17 11  1  0
 25 21  1  0
 47 27  1  0
 46 30  1  0
 40 34  1  0
M  END

