
     RDKit          3D

 47 49  0  0  0  0  0  0  0  0999 V2000
   -3.7087    3.0851   -0.1002 C   0  0  0  0  0  0  0  0  0  0  0  0
   -4.4428    2.2408    1.1283 C   0  0  2  0  0  0  0  0  0  0  0  0
   -3.1253    2.2123    2.1222 C   0  0  0  0  0  0  0  0  0  0  0  0
   -2.7870    3.5755    2.3951 N   0  0  0  0  0  0  0  0  0  0  0  0
   -3.1417    4.4209    3.3173 N   0  0  0  0  0  0  0  0  0  0  0  0
   -2.5300    5.6046    3.1304 C   0  0  0  0  0  0  0  0  0  0  0  0
   -1.7661    5.4605    2.0351 N   0  0  0  0  0  0  0  0  0  0  0  0
   -1.9302    4.2437    1.6074 N   0  0  0  0  0  0  0  0  0  0  0  0
   -4.1503    0.8147    0.5361 N   0  0  0  0  0  0  0  0  0  0  0  0
   -2.8690    0.4013    0.2737 C   0  0  0  0  0  0  0  0  0  0  0  0
   -1.7461    1.1508    0.4885 N   0  0  0  0  0  0  0  0  0  0  0  0
   -0.5167    0.7131    0.2198 C   0  0  0  0  0  0  0  0  0  0  0  0
   -0.3435   -0.5551   -0.3012 C   0  0  0  0  0  0  0  0  0  0  0  0
    0.8915   -1.0742   -0.6034 C   0  0  0  0  0  0  0  0  0  0  0  0
    0.9713   -2.3489   -1.1204 C   0  0  0  0  0  0  0  0  0  0  0  0
    2.1830   -2.9541   -1.4555 O   0  0  0  0  0  0  0  0  0  0  0  0
    3.3745   -2.2562   -1.2663 C   0  0  0  0  0  0  0  0  0  0  0  0
    4.2041   -1.9886   -2.3347 C   0  0  0  0  0  0  0  0  0  0  0  0
    5.3833   -1.3006   -2.1626 C   0  0  0  0  0  0  0  0  0  0  0  0
    5.7876   -0.8477   -0.9106 C   0  0  0  0  0  0  0  0  0  0  0  0
    6.9569   -0.1712   -0.7707 F   0  0  0  0  0  0  0  0  0  0  0  0
    4.9448   -1.1246    0.1468 C   0  0  0  0  0  0  0  0  0  0  0  0
    3.7595   -1.8174   -0.0336 C   0  0  0  0  0  0  0  0  0  0  0  0
    2.9304   -2.0888    1.0125 F   0  0  0  0  0  0  0  0  0  0  0  0
   -0.1684   -3.0951   -1.3325 C   0  0  0  0  0  0  0  0  0  0  0  0
   -0.1036   -4.2780   -1.8114 O   0  0  0  0  0  0  0  0  0  0  0  0
   -1.3442   -2.5677   -1.0314 N   0  0  0  0  0  0  0  0  0  0  0  0
   -2.5733   -3.3167   -1.2378 C   0  0  0  0  0  0  0  0  0  0  0  0
   -1.4579   -1.3125   -0.5198 C   0  0  0  0  0  0  0  0  0  0  0  0
   -2.6825   -0.8259   -0.2318 N   0  0  0  0  0  0  0  0  0  0  0  0
   -5.2473    2.2146    0.6949 N   0  0  0  0  0  0  0  0  0  0  0  0
   -4.1375    1.7608   -0.0738 C   0  0  0  0  0  0  0  0  0  0  0  0
   -4.2787    0.8693   -1.0174 N   0  0  0  0  0  4  0  0  0  0  0  0
   -2.8120    2.2368    0.1248 N   0  0  0  0  0  0  0  0  0  0  0  0
   -1.6795    1.7740   -0.6595 C   0  0  0  0  0  0  0  0  0  0  0  0
   -1.5648    0.2872   -0.4436 C   0  0  0  0  0  0  0  0  0  0  0  0
   -1.3420   -0.0645    1.0107 C   0  0  0  0  0  0  0  0  0  0  0  0
   -1.2378   -1.5659    1.1465 C   0  0  0  0  0  0  0  0  0  0  0  0
   -0.1417   -2.1101    0.3755 N   0  0  0  0  0  0  0  0  0  0  0  0
    1.2129   -1.7075    0.6180 C   0  0  0  0  0  0  0  0  0  0  0  0
    1.3657   -0.8639    1.5329 O   0  0  0  0  0  0  0  0  0  0  0  0
    2.3537   -2.2488   -0.1565 C   0  0  0  0  0  0  0  0  0  0  0  0
    3.6163   -1.6074    0.3649 C   0  0  0  0  0  0  0  0  0  0  0  0
    3.6058   -0.1222    0.2252 C   0  0  0  0  0  0  0  0  0  0  0  0
    3.4708    0.2379   -1.1991 C   0  0  0  0  0  0  0  0  0  0  0  0
    3.4316    1.5591   -1.6376 O   0  0  0  0  0  1  0  0  0  0  0  0
    3.3844   -0.6494   -2.0863 O   0  0  0  0  0  0  0  0  0  0  0  0
  2  1  1  6
  2  3  1  0
  3  4  1  0
  4  5  1  0
  5  6  2  0
  6  7  1  0
  7  8  2  0
  2  9  1  0
  9 10  1  0
 10 11  2  0
 11 12  1  0
 12 13  2  0
 13 14  1  0
 14 15  2  0
 15 16  1  0
 16 17  1  0
 17 18  2  0
 18 19  1  0
 19 20  2  0
 20 21  1  0
 20 22  1  0
 22 23  2  0
 23 24  1  0
 15 25  1  0
 25 26  2  0
 25 27  1  0
 27 28  1  0
 27 29  1  0
 29 30  2  0
 31 32  1  0
 32 33  2  0
 32 34  1  0
 34 35  1  0
 35 36  1  0
 36 37  1  0
 37 38  1  0
 38 39  1  0
 39 40  1  0
 40 41  2  0
 40 42  1  0
 42 43  1  0
 43 44  1  0
 44 45  1  0
 45 46  1  0
 45 47  2  0
  8  4  1  0
 30 10  1  0
 29 13  1  0
 23 17  1  0
M  CHG  1  33   1
M  RAD  1  46   2
M  END

