
     RDKit          3D

 43 45  0  0  0  0  0  0  0  0999 V2000
    3.3081   -1.1116   -1.4087 C   0  0  0  0  0  0  0  0  0  0  0  0
    3.0004   -0.7287   -0.0040 C   0  0  0  0  0  0  0  0  0  0  0  0
    2.9805    0.9022    0.0518 C   0  0  2  0  0  0  0  0  0  0  0  0
    2.6362    0.9868    1.6317 C   0  0  0  0  0  0  0  0  0  0  0  0
    1.4663    1.0961   -0.4649 C   0  0  0  0  0  0  0  0  0  0  0  0
    0.5234    0.4306    0.3922 C   0  0  0  0  0  0  0  0  0  0  0  0
    0.9263   -0.2827    1.3288 O   0  0  0  0  0  0  0  0  0  0  0  0
   -0.8736    0.5583    0.2084 N   0  0  0  0  0  0  0  0  0  0  0  0
   -1.7983   -0.1429    1.1131 C   0  0  0  0  0  0  0  0  0  0  0  0
   -3.2269    0.1337    0.7351 C   0  0  0  0  0  0  0  0  0  0  0  0
   -3.4037   -0.3638   -0.6849 C   0  0  0  0  0  0  0  0  0  0  0  0
   -2.4649    0.3528   -1.6340 C   0  0  0  0  0  0  0  0  0  0  0  0
   -3.0736   -1.8308   -0.6799 C   0  0  0  0  0  0  0  0  0  0  0  0
    5.8867   -0.5359   -1.8510 C   0  0  0  0  0  0  0  0  0  0  0  0
    4.4940    0.3906   -1.8508 C   0  0  2  0  0  0  0  0  0  0  0  0
    4.7644    0.9060   -0.2901 C   0  0  0  0  0  0  0  0  0  0  0  0
    6.0542    1.5607   -0.4818 N   0  0  0  0  0  0  0  0  0  0  0  0
    7.2495    1.0498   -0.3819 N   0  0  0  0  0  0  0  0  0  0  0  0
    8.1358    2.0091   -0.6402 C   0  0  0  0  0  0  0  0  0  0  0  0
    7.4760    3.1510   -0.9090 N   0  0  0  0  0  0  0  0  0  0  0  0
    6.1949    2.8345   -0.8015 N   0  0  0  0  0  0  0  0  0  0  0  0
    3.5925   -0.8137   -1.3849 N   0  0  0  0  0  0  0  0  0  0  0  0
    2.2347   -0.3968   -1.2592 C   0  0  0  0  0  0  0  0  0  0  0  0
    1.8451    0.8582   -1.5162 N   0  0  0  0  0  0  0  0  0  0  0  0
    0.5483    1.2153   -1.3855 C   0  0  0  0  0  0  0  0  0  0  0  0
   -0.4231    0.3241   -0.9884 C   0  0  0  0  0  0  0  0  0  0  0  0
   -1.7487    0.7085   -0.8598 C   0  0  0  0  0  0  0  0  0  0  0  0
   -2.6651   -0.2292   -0.4603 C   0  0  0  0  0  0  0  0  0  0  0  0
   -3.9828    0.1153   -0.3227 O   0  0  0  0  0  0  0  0  0  0  0  0
   -4.5686   -0.0322    0.9271 C   0  0  0  0  0  0  0  0  0  0  0  0
   -3.8713   -0.5087    2.0171 C   0  0  0  0  0  0  0  0  0  0  0  0
   -4.4689   -0.6517    3.2625 C   0  0  0  0  0  0  0  0  0  0  0  0
   -5.8015   -0.2918    3.3563 C   0  0  0  0  0  0  0  0  0  0  0  0
   -6.4892   -0.3923    4.5361 F   0  0  0  0  0  0  0  0  0  0  0  0
   -6.4965    0.1835    2.2681 C   0  0  0  0  0  0  0  0  0  0  0  0
   -5.8959    0.3215    1.0392 C   0  0  0  0  0  0  0  0  0  0  0  0
   -6.6266    0.7925    0.0088 F   0  0  0  0  0  0  0  0  0  0  0  0
   -2.2422   -1.5004   -0.2048 C   0  0  0  0  0  0  0  0  0  0  0  0
   -3.0446   -2.4010    0.1656 O   0  0  0  0  0  0  0  0  0  0  0  0
   -0.9497   -1.8564   -0.3350 N   0  0  0  0  0  0  0  0  0  0  0  0
   -0.4875   -3.2126   -0.0643 C   0  0  0  0  0  0  0  0  0  0  0  0
    0.0040   -0.9603   -0.7303 C   0  0  0  0  0  0  0  0  0  0  0  0
    1.2821   -1.2963   -0.8632 N   0  0  0  0  0  0  0  0  0  0  0  0
  1  2  1  0
  2  3  1  0
  3  4  1  1
  3  5  1  0
  5  6  1  0
  6  7  2  0
  6  8  1  0
  8  9  1  0
  9 10  1  0
 10 11  1  0
 11 12  1  0
 11 13  1  0
 15 14  1  1
 15 16  1  0
 16 17  1  0
 17 18  1  0
 18 19  2  0
 19 20  1  0
 20 21  2  0
 15 22  1  0
 22 23  1  0
 23 24  2  0
 24 25  1  0
 25 26  2  0
 26 27  1  0
 27 28  2  0
 28 29  1  0
 29 30  1  0
 30 31  2  0
 31 32  1  0
 32 33  2  0
 33 34  1  0
 33 35  1  0
 35 36  2  0
 36 37  1  0
 28 38  1  0
 38 39  2  0
 38 40  1  0
 40 41  1  0
 40 42  1  0
 42 43  2  0
 21 17  1  0
 43 23  1  0
 42 26  1  0
 36 30  1  0
M  END

