
     RDKit          3D

 47 50  0  0  0  0  0  0  0  0999 V2000
    5.7118   -2.2743   -0.9807 C   0  0  0  0  0  0  0  0  0  0  0  0
    5.7382   -0.9044   -0.3718 C   0  0  0  0  0  0  0  0  0  0  0  0
    4.3493   -0.1649   -0.9059 C   0  0  2  0  0  0  0  0  0  0  0  0
    4.7020    1.2270   -0.0868 C   0  0  0  0  0  0  0  0  0  0  0  0
    3.4545   -0.7646    0.3309 C   0  0  0  0  0  0  0  0  0  0  0  0
    2.0727   -0.2170    0.0760 C   0  0  0  0  0  0  0  0  0  0  0  0
    1.7994    0.5161   -0.8923 O   0  0  0  0  0  0  0  0  0  0  0  0
    1.0672   -0.5731    0.9990 N   0  0  0  0  0  0  0  0  0  0  0  0
   -0.2810   -0.0977    0.8367 C   0  0  0  0  0  0  0  0  0  0  0  0
   -0.8876   -0.5383   -0.4602 C   0  0  0  0  0  0  0  0  0  0  0  0
   -2.2679    0.0022   -0.5260 C   0  0  0  0  0  0  0  0  0  0  0  0
   -3.2713   -0.8045   -0.0018 C   0  0  0  0  0  0  0  0  0  0  0  0
   -4.5675   -0.3788   -0.0246 C   0  0  0  0  0  0  0  0  0  0  0  0
   -4.9024    0.8308   -0.5547 C   0  0  0  0  0  0  0  0  0  0  0  0
   -6.2133    1.2923   -0.5924 O   0  0  0  0  0  0  0  0  0  0  0  0
   -3.9086    1.6317   -1.0747 C   0  0  0  0  0  0  0  0  0  0  0  0
   -2.5954    1.2174   -1.0598 C   0  0  0  0  0  0  0  0  0  0  0  0
   -3.9210    0.3370   -0.3486 C   0  0  0  0  0  0  0  0  0  0  0  0
   -4.3110   -1.1059    0.4250 C   0  0  2  0  0  0  0  0  0  0  0  0
   -5.6279   -0.4823    1.2466 C   0  0  0  0  0  0  0  0  0  0  0  0
   -6.5491   -0.0115    0.2929 N   0  0  0  0  0  0  0  0  0  0  0  0
   -6.5715    1.2205   -0.2015 N   0  0  0  0  0  0  0  0  0  0  0  0
   -7.5668    1.3543   -1.0873 C   0  0  0  0  0  0  0  0  0  0  0  0
   -8.1806    0.1611   -1.1410 N   0  0  0  0  0  0  0  0  0  0  0  0
   -7.5494   -0.6438   -0.3013 N   0  0  0  0  0  0  0  0  0  0  0  0
   -3.3384   -0.7875    1.6390 N   0  0  0  0  0  0  0  0  0  0  0  0
   -1.9982   -0.6274    1.2749 C   0  0  0  0  0  0  0  0  0  0  0  0
   -1.1004   -0.3559    2.2319 N   0  0  0  0  0  0  0  0  0  0  0  0
    0.2053   -0.1904    1.9472 C   0  0  0  0  0  0  0  0  0  0  0  0
    0.6813   -0.2928    0.6540 C   0  0  0  0  0  0  0  0  0  0  0  0
    2.0181   -0.1267    0.3375 C   0  0  0  0  0  0  0  0  0  0  0  0
    2.4493   -0.2379   -0.9691 C   0  0  0  0  0  0  0  0  0  0  0  0
    3.7735   -0.0837   -1.3576 O   0  0  0  0  0  0  0  0  0  0  0  0
    4.7953    0.1972   -0.4738 C   0  0  0  0  0  0  0  0  0  0  0  0
    5.8534   -0.6652   -0.3394 C   0  0  0  0  0  0  0  0  0  0  0  0
    6.9046   -0.4069    0.5489 C   0  0  0  0  0  0  0  0  0  0  0  0
    6.8982    0.7393    1.3205 C   0  0  0  0  0  0  0  0  0  0  0  0
    7.9239    0.9837    2.1822 F   0  0  0  0  0  0  0  0  0  0  0  0
    5.8281    1.6048    1.1800 C   0  0  0  0  0  0  0  0  0  0  0  0
    4.7896    1.3403    0.2961 C   0  0  0  0  0  0  0  0  0  0  0  0
    3.7312    2.1814    0.1471 F   0  0  0  0  0  0  0  0  0  0  0  0
    1.4819   -0.5184   -1.9113 C   0  0  0  0  0  0  0  0  0  0  0  0
    1.8388   -0.6251   -3.1002 O   0  0  0  0  0  0  0  0  0  0  0  0
    0.1826   -0.6773   -1.5860 N   0  0  0  0  0  0  0  0  0  0  0  0
   -0.8254   -0.9742   -2.6020 C   0  0  0  0  0  0  0  0  0  0  0  0
   -0.2592   -0.5731   -0.3185 C   0  0  0  0  0  0  0  0  0  0  0  0
   -1.5563   -0.7308    0.0137 N   0  0  0  0  0  0  0  0  0  0  0  0
  1  2  1  0
  2  3  1  0
  3  4  1  1
  3  5  1  0
  5  6  1  0
  6  7  2  0
  6  8  1  0
  8  9  1  0
  9 10  1  0
 10 11  1  0
 11 12  2  0
 12 13  1  0
 13 14  2  0
 14 15  1  0
 14 16  1  0
 16 17  2  0
 19 18  1  6
 19 20  1  0
 20 21  1  0
 21 22  1  0
 22 23  2  0
 23 24  1  0
 24 25  2  0
 19 26  1  0
 26 27  1  0
 27 28  2  0
 28 29  1  0
 29 30  2  0
 30 31  1  0
 31 32  2  0
 32 33  1  0
 33 34  1  0
 34 35  2  0
 35 36  1  0
 36 37  2  0
 37 38  1  0
 37 39  1  0
 39 40  2  0
 40 41  1  0
 32 42  1  0
 42 43  2  0
 42 44  1  0
 44 45  1  0
 44 46  1  0
 46 47  2  0
 17 11  1  0
 25 21  1  0
 47 27  1  0
 46 30  1  0
 40 34  1  0
M  END

