
     RDKit          3D

 48 51  0  0  0  0  0  0  0  0999 V2000
   -3.8312   -0.0273    0.0696 C   0  0  0  0  0  0  0  0  0  0  0  0
   -3.8690    1.0745   -1.1720 C   0  0  2  0  0  0  0  0  0  0  0  0
   -5.4447    0.7370   -1.5657 C   0  0  0  0  0  0  0  0  0  0  0  0
   -6.1989    1.0393   -0.3808 N   0  0  0  0  0  0  0  0  0  0  0  0
   -6.7844    2.1375    0.0456 N   0  0  0  0  0  0  0  0  0  0  0  0
   -7.3770    1.9247    1.2339 C   0  0  0  0  0  0  0  0  0  0  0  0
   -7.1352    0.6386    1.5337 N   0  0  0  0  0  0  0  0  0  0  0  0
   -6.4328    0.1393    0.5545 N   0  0  0  0  0  0  0  0  0  0  0  0
   -3.2960    0.0451   -2.2143 N   0  0  0  0  0  0  0  0  0  0  0  0
   -2.0285   -0.4372   -1.8587 C   0  0  0  0  0  0  0  0  0  0  0  0
   -1.4217   -1.3186   -2.6529 N   0  0  0  0  0  0  0  0  0  0  0  0
   -0.2098   -1.7788   -2.3115 C   0  0  0  0  0  0  0  0  0  0  0  0
    0.4219   -1.3536   -1.1475 C   0  0  0  0  0  0  0  0  0  0  0  0
    1.6633   -1.8034   -0.7657 C   0  0  0  0  0  0  0  0  0  0  0  0
    2.1891   -1.3087    0.4120 C   0  0  0  0  0  0  0  0  0  0  0  0
    3.4609   -1.7989    0.7595 O   0  0  0  0  0  0  0  0  0  0  0  0
    4.4800   -0.8629    0.8838 C   0  0  0  0  0  0  0  0  0  0  0  0
    5.1371   -0.7226    2.0883 C   0  0  0  0  0  0  0  0  0  0  0  0
    6.1364    0.2002    2.1981 C   0  0  0  0  0  0  0  0  0  0  0  0
    6.4554    0.9596    1.1050 C   0  0  0  0  0  0  0  0  0  0  0  0
    7.4515    1.9019    1.1599 F   0  0  0  0  0  0  0  0  0  0  0  0
    5.8072    0.8222   -0.0857 C   0  0  0  0  0  0  0  0  0  0  0  0
    4.7962   -0.0963   -0.2336 C   0  0  0  0  0  0  0  0  0  0  0  0
    4.1322   -0.2584   -1.4014 F   0  0  0  0  0  0  0  0  0  0  0  0
    1.5374   -0.3984    1.2112 C   0  0  0  0  0  0  0  0  0  0  0  0
    2.0772    0.0046    2.2647 O   0  0  0  0  0  0  0  0  0  0  0  0
    0.3118    0.0288    0.8092 N   0  0  0  0  0  0  0  0  0  0  0  0
   -0.3805    0.9782    1.6322 C   0  0  0  0  0  0  0  0  0  0  0  0
   -0.2111   -0.4446   -0.3344 C   0  0  0  0  0  0  0  0  0  0  0  0
   -1.4369   -0.0218   -0.7431 N   0  0  0  0  0  0  0  0  0  0  0  0
    5.1280    0.3309   -2.1369 N   0  0  0  0  0  0  0  0  0  0  0  0
    5.0207    0.1755   -0.7332 C   0  0  0  0  0  0  0  0  0  0  0  0
    5.8558    0.7634   -0.0007 O   0  0  0  0  0  0  0  0  0  0  0  0
    3.9557   -0.6547   -0.1578 C   0  0  0  0  0  0  0  0  0  0  0  0
    4.0249   -0.6822    1.3327 C   0  0  0  0  0  0  0  0  0  0  0  0
    2.9526   -1.5181    1.9129 C   0  0  0  0  0  0  0  0  0  0  0  0
    1.6666   -1.0956    1.6371 N   0  0  0  0  0  0  0  0  0  0  0  0
    0.9456   -0.9575    0.4440 C   0  0  0  0  0  0  0  0  0  0  0  0
    1.4577   -1.2483   -0.6373 O   0  0  0  0  0  0  0  0  0  0  0  0
   -0.4477   -0.4455    0.5928 C   0  0  0  0  0  0  0  0  0  0  0  0
   -1.1509   -0.3257   -0.7211 C   0  0  0  0  0  0  0  0  0  0  0  0
   -2.5211    0.1897   -0.4556 C   0  0  0  0  0  0  0  0  0  0  0  0
   -2.8117    1.5396   -0.4328 C   0  0  0  0  0  0  0  0  0  0  0  0
   -4.0852    2.0094   -0.1857 C   0  0  0  0  0  0  0  0  0  0  0  0
   -5.1344    1.1475    0.0516 C   0  0  0  0  0  0  0  0  0  0  0  0
   -6.4178    1.6407    0.3001 O   0  0  0  0  0  0  0  0  0  0  0  0
   -4.8577   -0.2028    0.0317 C   0  0  0  0  0  0  0  0  0  0  0  0
   -3.5810   -0.6664   -0.2162 C   0  0  0  0  0  0  0  0  0  0  0  0
  2  1  1  1
  2  3  1  0
  3  4  1  0
  4  5  1  0
  5  6  2  0
  6  7  1  0
  7  8  2  0
  2  9  1  0
  9 10  1  0
 10 11  2  0
 11 12  1  0
 12 13  2  0
 13 14  1  0
 14 15  2  0
 15 16  1  0
 16 17  1  0
 17 18  2  0
 18 19  1  0
 19 20  2  0
 20 21  1  0
 20 22  1  0
 22 23  2  0
 23 24  1  0
 15 25  1  0
 25 26  2  0
 25 27  1  0
 27 28  1  0
 27 29  1  0
 29 30  2  0
 31 32  1  0
 32 33  2  0
 32 34  1  0
 34 35  1  0
 35 36  1  0
 36 37  1  0
 37 38  1  0
 38 39  2  0
 38 40  1  0
 40 41  1  0
 41 42  1  0
 42 43  2  0
 43 44  1  0
 44 45  2  0
 45 46  1  0
 45 47  1  0
 47 48  2  0
  8  4  1  0
 30 10  1  0
 48 42  1  0
 29 13  1  0
 23 17  1  0
M  END

