
     RDKit          3D

 42 44  0  0  0  0  0  0  0  0999 V2000
    3.6380    1.1404   -2.5134 C   0  0  0  0  0  0  0  0  0  0  0  0
    4.6273    1.0264   -1.1847 C   0  0  2  0  0  0  0  0  0  0  0  0
    5.6598   -0.0274   -1.9443 C   0  0  0  0  0  0  0  0  0  0  0  0
    6.6215   -0.2349   -0.8744 N   0  0  0  0  0  0  0  0  0  0  0  0
    7.7036    0.4814   -0.6727 N   0  0  0  0  0  0  0  0  0  0  0  0
    8.2994   -0.0373    0.4018 C   0  0  0  0  0  0  0  0  0  0  0  0
    7.5609   -1.0685    0.8364 N   0  0  0  0  0  0  0  0  0  0  0  0
    6.5318   -1.1673    0.0300 N   0  0  0  0  0  0  0  0  0  0  0  0
    3.7672   -0.1379   -0.5429 N   0  0  0  0  0  0  0  0  0  0  0  0
    2.4039    0.2733   -0.2951 C   0  0  0  0  0  0  0  0  0  0  0  0
    1.9587    1.5070   -0.5890 N   0  0  0  0  0  0  0  0  0  0  0  0
    0.7030    1.9364   -0.3781 C   0  0  0  0  0  0  0  0  0  0  0  0
   -0.1707    1.0261    0.1810 C   0  0  0  0  0  0  0  0  0  0  0  0
   -1.4727    1.3648    0.4360 C   0  0  0  0  0  0  0  0  0  0  0  0
   -2.3776    0.4779    0.9959 C   0  0  0  0  0  0  0  0  0  0  0  0
   -3.6528    0.9116    1.2110 O   0  0  0  0  0  0  0  0  0  0  0  0
   -4.7947    0.3727    0.6678 C   0  0  0  0  0  0  0  0  0  0  0  0
   -5.7642   -0.1272    1.5356 C   0  0  0  0  0  0  0  0  0  0  0  0
   -6.9077   -0.6672    1.0037 C   0  0  0  0  0  0  0  0  0  0  0  0
   -7.1304   -0.7325   -0.3569 C   0  0  0  0  0  0  0  0  0  0  0  0
   -8.2790   -1.2784   -0.7849 F   0  0  0  0  0  0  0  0  0  0  0  0
   -6.1524   -0.2300   -1.1810 C   0  0  0  0  0  0  0  0  0  0  0  0
   -4.9872    0.3222   -0.6956 C   0  0  0  0  0  0  0  0  0  0  0  0
   -4.0699    0.7966   -1.5636 F   0  0  0  0  0  0  0  0  0  0  0  0
   -1.9089   -0.7881    1.2942 C   0  0  0  0  0  0  0  0  0  0  0  0
   -2.7445   -1.5857    1.8039 O   0  0  0  0  0  0  0  0  0  0  0  0
   -0.6300   -1.1443    1.0516 N   0  0  0  0  0  0  0  0  0  0  0  0
   -0.1828   -2.4747    1.3780 C   0  0  0  0  0  0  0  0  0  0  0  0
    0.2351   -0.2536    0.5018 C   0  0  0  0  0  0  0  0  0  0  0  0
    1.5153   -0.5774    0.2478 N   0  0  0  0  0  0  0  0  0  0  0  0
    4.5383    0.8911    1.2705 O   0  0  0  0  0  1  0  0  0  0  0  0
    3.3839    0.2497    0.8638 C   0  0  0  0  0  0  0  0  0  0  0  0
    3.4268   -0.6309   -0.0609 O   0  0  0  0  0  0  0  0  0  0  0  0
    2.1029    0.6051    1.5213 C   0  0  0  0  0  0  0  0  0  0  0  0
    0.9427   -0.1643    0.9832 C   0  0  0  0  0  0  0  0  0  0  0  0
    0.8000    0.1164   -0.4883 C   0  0  0  0  0  0  0  0  0  0  0  0
   -0.3197   -0.6085   -1.0739 N   0  0  0  0  0  0  0  0  0  0  0  0
   -1.6519   -0.4447   -0.6495 C   0  0  0  0  0  0  0  0  0  0  0  0
   -1.8920    0.3648    0.2791 O   0  0  0  0  0  0  0  0  0  0  0  0
   -2.8039   -1.1764   -1.2365 C   0  0  0  0  0  0  0  0  0  0  0  0
   -4.1032   -0.8152   -0.6020 C   0  0  0  0  0  0  0  0  0  0  0  0
   -4.4239    0.9548   -0.8068 S   0  0  0  0  0  0  0  0  0  0  0  0
  2  1  1  6
  2  3  1  0
  3  4  1  0
  4  5  1  0
  5  6  2  0
  6  7  1  0
  7  8  2  0
  2  9  1  0
  9 10  1  0
 10 11  2  0
 11 12  1  0
 12 13  2  0
 13 14  1  0
 14 15  2  0
 15 16  1  0
 16 17  1  0
 17 18  2  0
 18 19  1  0
 19 20  2  0
 20 21  1  0
 20 22  1  0
 22 23  2  0
 23 24  1  0
 15 25  1  0
 25 26  2  0
 25 27  1  0
 27 28  1  0
 27 29  1  0
 29 30  2  0
 31 32  1  0
 32 33  2  0
 32 34  1  0
 34 35  1  0
 35 36  1  0
 36 37  1  0
 37 38  1  0
 38 39  2  0
 38 40  1  0
 40 41  1  0
 41 42  1  0
  8  4  1  0
 30 10  1  0
 29 13  1  0
 23 17  1  0
M  RAD  1  31   2
M  END

