
     RDKit          3D

 43 45  0  0  0  0  0  0  0  0999 V2000
    3.3425    0.1436   -2.5174 C   0  0  0  0  0  0  0  0  0  0  0  0
    2.6314   -0.2319   -1.2790 C   0  0  0  0  0  0  0  0  0  0  0  0
    2.2738   -1.6543   -1.0940 C   0  0  0  0  0  0  0  0  0  0  0  0
    3.1031    0.4654   -0.0182 C   0  0  0  0  0  0  0  0  0  0  0  0
    2.2126   -0.0991    1.1011 C   0  0  0  0  0  0  0  0  0  0  0  0
    0.8215    0.2628    0.7235 C   0  0  0  0  0  0  0  0  0  0  0  0
    0.5410    0.9342   -0.3028 O   0  0  0  0  0  0  0  0  0  0  0  0
   -0.3118   -0.1343    1.5233 N   0  0  0  0  0  0  0  0  0  0  0  0
   -1.6561    0.2364    1.1377 C   0  0  0  0  0  0  0  0  0  0  0  0
   -1.9214   -0.3184   -0.2552 C   0  0  0  0  0  0  0  0  0  0  0  0
   -3.2822   -0.0031   -0.7392 C   0  0  0  0  0  0  0  0  0  0  0  0
   -3.6341    1.3058   -1.0039 O   0  0  0  0  0  1  0  0  0  0  0  0
   -4.1204   -0.9073   -0.9127 O   0  0  0  0  0  0  0  0  0  0  0  0
    5.7078   -2.7960    0.2224 C   0  0  0  0  0  0  0  0  0  0  0  0
    4.0726   -2.7844   -0.0077 C   0  0  2  0  0  0  0  0  0  0  0  0
    4.1490   -2.3015   -1.5748 C   0  0  0  0  0  0  0  0  0  0  0  0
    4.8023   -1.0526   -1.6480 N   0  0  0  0  0  0  0  0  0  0  0  0
    6.1364   -0.9719   -1.8000 N   0  0  0  0  0  0  0  0  0  0  0  0
    6.5066    0.3058   -1.8409 C   0  0  0  0  0  0  0  0  0  0  0  0
    5.3815    1.0275   -1.7119 N   0  0  0  0  0  0  0  0  0  0  0  0
    4.3933    0.1908   -1.6001 N   0  0  0  0  0  0  0  0  0  0  0  0
    3.8993   -1.3315    0.5687 N   0  0  0  0  0  0  0  0  0  0  0  0
    2.5336   -0.8972    0.5522 C   0  0  0  0  0  0  0  0  0  0  0  0
    2.2564    0.3327    1.0214 N   0  0  0  0  0  0  0  0  0  0  0  0
    0.9917    0.8109    1.0376 C   0  0  0  0  0  0  0  0  0  0  0  0
   -0.0637    0.0540    0.5727 C   0  0  0  0  0  0  0  0  0  0  0  0
   -1.3724    0.5087    0.5728 C   0  0  0  0  0  0  0  0  0  0  0  0
   -2.4187   -0.2629    0.1032 C   0  0  0  0  0  0  0  0  0  0  0  0
   -3.7295    0.1259    0.0758 O   0  0  0  0  0  0  0  0  0  0  0  0
   -4.2778    1.2843    0.4764 C   0  0  0  0  0  0  0  0  0  0  0  0
   -4.9528    2.0510   -0.4315 C   0  0  0  0  0  0  0  0  0  0  0  0
   -5.5469    3.2594   -0.0967 C   0  0  0  0  0  0  0  0  0  0  0  0
   -5.4464    3.6959    1.2090 C   0  0  0  0  0  0  0  0  0  0  0  0
   -6.0368    4.8923    1.5321 F   0  0  0  0  0  0  0  0  0  0  0  0
   -4.7720    2.9497    2.1578 C   0  0  0  0  0  0  0  0  0  0  0  0
   -4.1918    1.7365    1.7606 C   0  0  0  0  0  0  0  0  0  0  0  0
   -3.5349    1.0366    2.7424 F   0  0  0  0  0  0  0  0  0  0  0  0
   -2.0601   -1.5147   -0.3633 C   0  0  0  0  0  0  0  0  0  0  0  0
   -2.9399   -2.2953   -0.8128 O   0  0  0  0  0  0  0  0  0  0  0  0
   -0.7786   -1.9486   -0.3588 N   0  0  0  0  0  0  0  0  0  0  0  0
   -0.4602   -3.2750   -0.8620 C   0  0  0  0  0  0  0  0  0  0  0  0
    0.2365   -1.2065    0.0941 C   0  0  0  0  0  0  0  0  0  0  0  0
    1.5154   -1.6241    0.1051 N   0  0  0  0  0  0  0  0  0  0  0  0
  1  2  1  0
  2  3  1  0
  2  4  1  0
  4  5  1  0
  5  6  1  0
  6  7  2  0
  6  8  1  0
  8  9  1  0
  9 10  1  0
 10 11  1  0
 11 12  1  0
 11 13  2  0
 15 14  1  1
 15 16  1  0
 16 17  1  0
 17 18  1  0
 18 19  2  0
 19 20  1  0
 20 21  2  0
 15 22  1  0
 22 23  1  0
 23 24  2  0
 24 25  1  0
 25 26  2  0
 26 27  1  0
 27 28  2  0
 28 29  1  0
 29 30  1  0
 30 31  2  0
 31 32  1  0
 32 33  2  0
 33 34  1  0
 33 35  1  0
 35 36  2  0
 36 37  1  0
 28 38  1  0
 38 39  2  0
 38 40  1  0
 40 41  1  0
 40 42  1  0
 42 43  2  0
 21 17  1  0
 43 23  1  0
 42 26  1  0
 36 30  1  0
M  RAD  1  12   2
M  END

