
     RDKit          3D

 45 49  0  0  0  0  0  0  0  0999 V2000
   -3.7900   -1.8857    0.8933 C   0  0  0  0  0  0  0  0  0  0  0  0
   -4.0649   -0.7798    2.1020 C   0  0  2  0  0  0  0  0  0  0  0  0
   -5.7072   -0.7174    1.9512 C   0  0  0  0  0  0  0  0  0  0  0  0
   -6.0961   -0.3019    0.6882 N   0  0  0  0  0  0  0  0  0  0  0  0
   -6.3372   -1.0426   -0.3924 N   0  0  0  0  0  0  0  0  0  0  0  0
   -6.6876   -0.2512   -1.4061 C   0  0  0  0  0  0  0  0  0  0  0  0
   -6.6659    1.0061   -0.9541 N   0  0  0  0  0  0  0  0  0  0  0  0
   -6.3106    0.9600    0.2993 N   0  0  0  0  0  0  0  0  0  0  0  0
   -3.8399    0.4670    1.1541 N   0  0  0  0  0  0  0  0  0  0  0  0
   -2.5802    0.5516    0.5531 C   0  0  0  0  0  0  0  0  0  0  0  0
   -2.3346    1.5826   -0.2565 N   0  0  0  0  0  0  0  0  0  0  0  0
   -1.1534    1.7628   -0.8889 C   0  0  0  0  0  0  0  0  0  0  0  0
   -0.1800    0.8056   -0.6554 C   0  0  0  0  0  0  0  0  0  0  0  0
    1.0769    0.8973   -1.2601 C   0  0  0  0  0  0  0  0  0  0  0  0
    2.0552   -0.0558   -1.0315 C   0  0  0  0  0  0  0  0  0  0  0  0
    3.2782    0.0499   -1.6311 O   0  0  0  0  0  0  0  0  0  0  0  0
    4.4889    0.1547   -0.9493 C   0  0  0  0  0  0  0  0  0  0  0  0
    5.4923   -0.7788   -1.1064 C   0  0  0  0  0  0  0  0  0  0  0  0
    6.6851   -0.6593   -0.4233 C   0  0  0  0  0  0  0  0  0  0  0  0
    6.9424    0.3830    0.4436 C   0  0  0  0  0  0  0  0  0  0  0  0
    8.1323    0.4520    1.0896 F   0  0  0  0  0  0  0  0  0  0  0  0
    5.9415    1.3204    0.6048 C   0  0  0  0  0  0  0  0  0  0  0  0
    4.7465    1.1967   -0.0825 C   0  0  0  0  0  0  0  0  0  0  0  0
    3.7568    2.1153    0.0710 F   0  0  0  0  0  0  0  0  0  0  0  0
    1.7443   -1.0881   -0.1929 C   0  0  0  0  0  0  0  0  0  0  0  0
    2.6037   -1.9808    0.0457 O   0  0  0  0  0  0  0  0  0  0  0  0
    0.5449   -1.2094    0.4072 N   0  0  0  0  0  0  0  0  0  0  0  0
    0.2868   -2.3312    1.2841 C   0  0  0  0  0  0  0  0  0  0  0  0
   -0.4071   -0.2696    0.1763 C   0  0  0  0  0  0  0  0  0  0  0  0
   -1.6210   -0.3533    0.7570 N   0  0  0  0  0  0  0  0  0  0  0  0
   -3.4806    0.9025   -1.7160 O   0  0  0  0  0  1  0  0  0  0  0  0
   -2.3244    0.7200   -1.0062 C   0  0  0  0  0  0  0  0  0  0  0  0
   -1.5423    1.6645   -0.7565 O   0  0  0  0  0  0  0  0  0  0  0  0
   -1.9411   -0.7216   -0.4730 C   0  0  2  0  0  0  0  0  0  0  0  0
   -2.8472   -0.6847    0.8821 C   0  0  0  0  0  0  0  0  0  0  0  0
   -1.9911   -0.1668    1.9305 C   0  0  0  0  0  0  0  0  0  0  0  0
   -0.9497    0.6558    1.2085 C   0  0  0  0  0  0  0  0  0  0  0  0
   -0.6158   -0.3191    0.2088 N   0  0  0  0  0  0  0  0  0  0  0  0
    0.6112   -0.8922   -0.1894 C   0  0  0  0  0  0  0  0  0  0  0  0
    0.7632   -1.7197   -1.0622 O   0  0  0  0  0  0  0  0  0  0  0  0
    1.7864   -0.2917    0.6804 C   0  0  2  0  0  0  0  0  0  0  0  0
    2.0722    0.9890   -0.3062 C   0  0  0  0  0  0  0  0  0  0  0  0
    3.5156    1.1830    0.1420 C   0  0  0  0  0  0  0  0  0  0  0  0
    4.0074   -0.2181    0.4459 C   0  0  0  0  0  0  0  0  0  0  0  0
    2.9361   -1.1008    0.0111 N   0  0  0  0  0  0  0  0  0  0  0  0
  2  1  1  6
  2  3  1  0
  3  4  1  0
  4  5  1  0
  5  6  2  0
  6  7  1  0
  7  8  2  0
  2  9  1  0
  9 10  1  0
 10 11  2  0
 11 12  1  0
 12 13  2  0
 13 14  1  0
 14 15  2  0
 15 16  1  0
 16 17  1  0
 17 18  2  0
 18 19  1  0
 19 20  2  0
 20 21  1  0
 20 22  1  0
 22 23  2  0
 23 24  1  0
 15 25  1  0
 25 26  2  0
 25 27  1  0
 27 28  1  0
 27 29  1  0
 29 30  2  0
 31 32  1  0
 32 33  2  0
 34 32  1  6
 34 35  1  0
 35 36  1  0
 36 37  1  0
 37 38  1  0
 38 39  1  0
 39 40  2  0
 41 39  1  6
 41 42  1  0
 42 43  1  0
 43 44  1  0
 44 45  1  0
  8  4  1  0
 30 10  1  0
 38 34  1  0
 45 41  1  0
 29 13  1  0
 23 17  1  0
M  RAD  1  31   2
M  END

