
     RDKit          3D

 46 49  0  0  0  0  0  0  0  0999 V2000
    6.1050   -0.2630   -0.1283 C   0  0  0  0  0  0  0  0  0  0  0  0
    4.6214    0.0479   -0.2315 C   0  0  0  0  0  0  0  0  0  0  0  0
    4.3929    1.4638   -0.7216 C   0  0  0  0  0  0  0  0  0  0  0  0
    4.0255   -0.0229    1.1722 C   0  0  0  0  0  0  0  0  0  0  0  0
    2.6307    0.2710    1.0634 N   0  0  0  0  0  0  0  0  0  0  0  0
    1.7090   -0.4840    0.2895 C   0  0  0  0  0  0  0  0  0  0  0  0
    2.1512   -1.4844   -0.3469 O   0  0  0  0  0  0  0  0  0  0  0  0
    0.3013   -0.0585    0.2750 C   0  0  0  0  0  0  0  0  0  0  0  0
   -0.5742   -0.9259   -0.5713 C   0  0  0  0  0  0  0  0  0  0  0  0
   -1.9609   -0.4003   -0.5070 C   0  0  0  0  0  0  0  0  0  0  0  0
   -2.7967   -0.8771    0.4795 C   0  0  0  0  0  0  0  0  0  0  0  0
   -4.0996   -0.3838    0.5406 C   0  0  0  0  0  0  0  0  0  0  0  0
   -4.5331    0.5578   -0.3676 C   0  0  0  0  0  0  0  0  0  0  0  0
   -5.8588    0.9901   -0.2223 O   0  0  0  0  0  0  0  0  0  0  0  0
   -3.7067    1.0284   -1.3420 C   0  0  0  0  0  0  0  0  0  0  0  0
   -2.4071    0.5408   -1.4082 C   0  0  0  0  0  0  0  0  0  0  0  0
   -4.2443   -0.2808    0.7943 C   0  0  0  0  0  0  0  0  0  0  0  0
   -4.7516    0.3139   -0.6600 C   0  0  2  0  0  0  0  0  0  0  0  0
   -5.6530   -1.0409   -0.9934 C   0  0  0  0  0  0  0  0  0  0  0  0
   -6.5642   -1.0096    0.1341 N   0  0  0  0  0  0  0  0  0  0  0  0
   -7.7275   -0.3886    0.1350 N   0  0  0  0  0  0  0  0  0  0  0  0
   -8.3113   -0.5627    1.3382 C   0  0  0  0  0  0  0  0  0  0  0  0
   -7.4797   -1.3086    2.0856 N   0  0  0  0  0  0  0  0  0  0  0  0
   -6.4324   -1.5569    1.3151 N   0  0  0  0  0  0  0  0  0  0  0  0
   -3.4920   -0.2427   -1.4281 N   0  0  0  0  0  0  0  0  0  0  0  0
   -2.2516    0.2758   -0.9430 C   0  0  0  0  0  0  0  0  0  0  0  0
   -2.1876    1.1618    0.0823 N   0  0  0  0  0  0  0  0  0  0  0  0
   -0.9884    1.6057    0.4847 C   0  0  0  0  0  0  0  0  0  0  0  0
    0.1739    1.1784   -0.1238 C   0  0  0  0  0  0  0  0  0  0  0  0
    1.4232    1.6153    0.2656 C   0  0  0  0  0  0  0  0  0  0  0  0
    2.5555    1.1360   -0.4004 C   0  0  0  0  0  0  0  0  0  0  0  0
    3.8289    1.5570   -0.0318 O   0  0  0  0  0  0  0  0  0  0  0  0
    4.7573    0.6190    0.3993 C   0  0  0  0  0  0  0  0  0  0  0  0
    5.9532    0.4574   -0.2860 C   0  0  0  0  0  0  0  0  0  0  0  0
    6.8977   -0.4737    0.1250 C   0  0  0  0  0  0  0  0  0  0  0  0
    6.6155   -1.2361    1.2356 C   0  0  0  0  0  0  0  0  0  0  0  0
    7.5087   -2.1598    1.6755 F   0  0  0  0  0  0  0  0  0  0  0  0
    5.4243   -1.0673    1.9089 C   0  0  0  0  0  0  0  0  0  0  0  0
    4.4684   -0.1411    1.5119 C   0  0  0  0  0  0  0  0  0  0  0  0
    3.3006   -0.0032    2.2048 F   0  0  0  0  0  0  0  0  0  0  0  0
    2.4331    0.2318   -1.4413 C   0  0  0  0  0  0  0  0  0  0  0  0
    3.4708   -0.1809   -2.0208 O   0  0  0  0  0  0  0  0  0  0  0  0
    1.2177   -0.1642   -1.7864 N   0  0  0  0  0  0  0  0  0  0  0  0
    1.0809   -1.1122   -2.8770 C   0  0  0  0  0  0  0  0  0  0  0  0
    0.1016    0.2739   -1.1698 C   0  0  0  0  0  0  0  0  0  0  0  0
   -1.1276   -0.1397   -1.5340 N   0  0  0  0  0  0  0  0  0  0  0  0
  1  2  1  0
  2  3  1  0
  2  4  1  0
  4  5  1  0
  5  6  1  0
  6  7  2  0
  6  8  1  0
  8  9  1  0
  9 10  1  0
 10 11  2  0
 11 12  1  0
 12 13  2  0
 13 14  1  0
 13 15  1  0
 15 16  2  0
 18 17  1  1
 18 19  1  0
 19 20  1  0
 20 21  1  0
 21 22  2  0
 22 23  1  0
 23 24  2  0
 18 25  1  0
 25 26  1  0
 26 27  2  0
 27 28  1  0
 28 29  2  0
 29 30  1  0
 30 31  2  0
 31 32  1  0
 32 33  1  0
 33 34  2  0
 34 35  1  0
 35 36  2  0
 36 37  1  0
 36 38  1  0
 38 39  2  0
 39 40  1  0
 31 41  1  0
 41 42  2  0
 41 43  1  0
 43 44  1  0
 43 45  1  0
 45 46  2  0
 16 10  1  0
 24 20  1  0
 46 26  1  0
 45 29  1  0
 39 33  1  0
M  END

