
     RDKit          3D

 40 42  0  0  0  0  0  0  0  0999 V2000
    3.8914    0.5059   -0.6410 C   0  0  0  0  0  0  0  0  0  0  0  0
    3.0978    0.8681    0.5798 C   0  0  0  0  0  0  0  0  0  0  0  0
    1.7267    0.2697    0.4253 C   0  0  0  0  0  0  0  0  0  0  0  0
    1.3976   -0.3785   -0.6039 O   0  0  0  0  0  0  0  0  0  0  0  0
    0.7442    0.4136    1.4371 N   0  0  0  0  0  0  0  0  0  0  0  0
   -0.5528   -0.1667    1.2595 C   0  0  0  0  0  0  0  0  0  0  0  0
   -1.3297    0.3275    0.0826 C   0  0  0  0  0  0  0  0  0  0  0  0
   -2.6225   -0.3756    0.0750 C   0  0  0  0  0  0  0  0  0  0  0  0
   -2.6916   -1.7153    0.3649 O   0  0  0  0  0  1  0  0  0  0  0  0
   -3.6611    0.2513   -0.1964 O   0  0  0  0  0  0  0  0  0  0  0  0
   -3.9809    0.0736    0.8897 C   0  0  0  0  0  0  0  0  0  0  0  0
   -4.7145    0.7317   -0.4472 C   0  0  2  0  0  0  0  0  0  0  0  0
   -6.1048   -0.1349   -0.2115 C   0  0  0  0  0  0  0  0  0  0  0  0
   -5.7896   -1.5144   -0.2569 N   0  0  0  0  0  0  0  0  0  0  0  0
   -5.4499   -2.1903    0.8266 N   0  0  0  0  0  0  0  0  0  0  0  0
   -5.2032   -3.4701    0.5115 C   0  0  0  0  0  0  0  0  0  0  0  0
   -5.4021   -3.5633   -0.8062 N   0  0  0  0  0  0  0  0  0  0  0  0
   -5.7513   -2.3833   -1.2424 N   0  0  0  0  0  0  0  0  0  0  0  0
   -4.0002   -0.2872   -1.4346 N   0  0  0  0  0  0  0  0  0  0  0  0
   -2.5895   -0.1891   -1.3797 C   0  0  0  0  0  0  0  0  0  0  0  0
   -1.8827   -1.0040   -2.1731 N   0  0  0  0  0  0  0  0  0  0  0  0
   -0.5322   -0.9896   -2.1961 C   0  0  0  0  0  0  0  0  0  0  0  0
    0.1675   -0.1103   -1.3799 C   0  0  0  0  0  0  0  0  0  0  0  0
    1.5474   -0.0744   -1.3834 C   0  0  0  0  0  0  0  0  0  0  0  0
    2.2135    0.8165   -0.5552 C   0  0  0  0  0  0  0  0  0  0  0  0
    3.5988    0.9030   -0.5108 O   0  0  0  0  0  0  0  0  0  0  0  0
    4.3205    0.6725    0.6566 C   0  0  0  0  0  0  0  0  0  0  0  0
    3.6968    0.3404    1.8547 C   0  0  0  0  0  0  0  0  0  0  0  0
    4.4540    0.1208    2.9875 C   0  0  0  0  0  0  0  0  0  0  0  0
    5.8366    0.2370    2.9075 C   0  0  0  0  0  0  0  0  0  0  0  0
    6.5862    0.0221    4.0186 F   0  0  0  0  0  0  0  0  0  0  0  0
    6.4529    0.5666    1.7178 C   0  0  0  0  0  0  0  0  0  0  0  0
    5.6928    0.7882    0.5759 C   0  0  0  0  0  0  0  0  0  0  0  0
    6.2795    1.1135   -0.6046 F   0  0  0  0  0  0  0  0  0  0  0  0
    1.4600    1.6441    0.2514 C   0  0  0  0  0  0  0  0  0  0  0  0
    2.0806    2.4528    1.0028 O   0  0  0  0  0  0  0  0  0  0  0  0
    0.1163    1.5734    0.2208 N   0  0  0  0  0  0  0  0  0  0  0  0
   -0.6261    2.4671    1.0899 C   0  0  0  0  0  0  0  0  0  0  0  0
   -0.5669    0.7269   -0.5647 C   0  0  0  0  0  0  0  0  0  0  0  0
   -1.9096    0.6607   -0.5911 N   0  0  0  0  0  0  0  0  0  0  0  0
  1  2  1  0
  2  3  1  0
  3  4  2  0
  3  5  1  0
  5  6  1  0
  6  7  1  0
  7  8  1  0
  8  9  1  0
  8 10  2  0
 12 11  1  1
 12 13  1  0
 13 14  1  0
 14 15  1  0
 15 16  2  0
 16 17  1  0
 17 18  2  0
 12 19  1  0
 19 20  1  0
 20 21  2  0
 21 22  1  0
 22 23  2  0
 23 24  1  0
 24 25  2  0
 25 26  1  0
 26 27  1  0
 27 28  2  0
 28 29  1  0
 29 30  2  0
 30 31  1  0
 30 32  1  0
 32 33  2  0
 33 34  1  0
 25 35  1  0
 35 36  2  0
 35 37  1  0
 37 38  1  0
 37 39  1  0
 39 40  2  0
 18 14  1  0
 40 20  1  0
 39 23  1  0
 33 27  1  0
M  RAD  1   9   2
M  END

