
     RDKit          3D

 50 54  0  0  0  0  0  0  0  0999 V2000
    3.9543    2.5927   -1.0330 C   0  0  0  0  0  0  0  0  0  0  0  0
    4.7934    1.5188   -0.1031 C   0  0  2  0  0  0  0  0  0  0  0  0
    5.9339    1.2852   -1.2457 C   0  0  0  0  0  0  0  0  0  0  0  0
    6.8169    0.3165   -0.5849 N   0  0  0  0  0  0  0  0  0  0  0  0
    6.6804   -0.9968   -0.6657 N   0  0  0  0  0  0  0  0  0  0  0  0
    7.6618   -1.5145    0.0606 C   0  0  0  0  0  0  0  0  0  0  0  0
    8.3837   -0.5036    0.5745 N   0  0  0  0  0  0  0  0  0  0  0  0
    7.8556    0.6367    0.1711 N   0  0  0  0  0  0  0  0  0  0  0  0
    3.9288    0.3082   -0.5730 N   0  0  0  0  0  0  0  0  0  0  0  0
    2.5496    0.4533   -0.2613 C   0  0  0  0  0  0  0  0  0  0  0  0
    2.0202    1.5143    0.3726 N   0  0  0  0  0  0  0  0  0  0  0  0
    0.6974    1.5785    0.6338 C   0  0  0  0  0  0  0  0  0  0  0  0
   -0.1661    0.5670    0.2655 C   0  0  0  0  0  0  0  0  0  0  0  0
   -1.5123    0.5994    0.5144 C   0  0  0  0  0  0  0  0  0  0  0  0
   -2.3610   -0.4578    0.1201 C   0  0  0  0  0  0  0  0  0  0  0  0
   -3.5969   -0.3698    0.3778 O   0  0  0  0  0  0  0  0  0  0  0  0
   -4.8433   -0.2812    0.6377 C   0  0  0  0  0  0  0  0  0  0  0  0
   -5.6225   -1.1464    1.4197 C   0  0  0  0  0  0  0  0  0  0  0  0
   -6.9634   -0.9435    1.6273 C   0  0  0  0  0  0  0  0  0  0  0  0
   -7.6019    0.1423    1.0603 C   0  0  0  0  0  0  0  0  0  0  0  0
   -8.9204    0.3747    1.2424 F   0  0  0  0  0  0  0  0  0  0  0  0
   -6.8913    1.0119    0.2927 C   0  0  0  0  0  0  0  0  0  0  0  0
   -5.5533    0.8042    0.0893 C   0  0  0  0  0  0  0  0  0  0  0  0
   -4.9006    1.7054   -0.6848 F   0  0  0  0  0  0  0  0  0  0  0  0
   -1.7101   -1.5191   -0.5349 C   0  0  0  0  0  0  0  0  0  0  0  0
   -2.5054   -2.4553   -0.8763 O   0  0  0  0  0  0  0  0  0  0  0  0
   -0.4108   -1.5211   -0.7601 N   0  0  0  0  0  0  0  0  0  0  0  0
    0.1765   -2.6585   -1.4428 C   0  0  0  0  0  0  0  0  0  0  0  0
    0.3876   -0.5138   -0.3828 C   0  0  0  0  0  0  0  0  0  0  0  0
    1.7191   -0.5279   -0.6198 N   0  0  0  0  0  0  0  0  0  0  0  0
    6.1299    0.8352   -2.1246 N   0  0  0  0  0  4  0  0  0  0  0  0
    5.1608    0.0240   -1.4531 C   0  0  0  0  0  0  0  0  0  0  0  0
    5.7718   -0.8278   -0.3598 C   0  0  0  0  0  0  0  0  0  0  0  0
    4.6816   -1.6484    0.2933 C   0  0  0  0  0  0  0  0  0  0  0  0
    3.6011   -0.7887    0.9139 C   0  0  0  0  0  0  0  0  0  0  0  0
    2.9833    0.0515   -0.1770 C   0  0  0  0  0  0  0  0  0  0  0  0
    1.9330    0.9110    0.3283 N   0  0  0  0  0  0  0  0  0  0  0  0
    0.7704    0.4347    0.9652 C   0  0  0  0  0  0  0  0  0  0  0  0
    0.6321   -0.8136    1.1057 O   0  0  0  0  0  0  0  0  0  0  0  0
   -0.2329    1.4110    1.4393 C   0  0  0  0  0  0  0  0  0  0  0  0
   -1.4161    0.7395    2.0998 C   0  0  0  0  0  0  0  0  0  0  0  0
   -2.1165   -0.1776    1.1727 C   0  0  0  0  0  0  0  0  0  0  0  0
   -2.0401   -1.5521    1.1749 C   0  0  0  0  0  0  0  0  0  0  0  0
   -2.8234   -1.9703    0.1792 N   0  0  0  0  0  0  0  0  0  0  0  0
   -3.3910   -0.9422   -0.4530 C   0  0  0  0  0  0  0  0  0  0  0  0
   -4.2670   -0.9170   -1.5333 C   0  0  0  0  0  0  0  0  0  0  0  0
   -4.7261    0.2934   -2.0193 C   0  0  0  0  0  0  0  0  0  0  0  0
   -4.2837    1.4537   -1.3950 C   0  0  0  0  0  0  0  0  0  0  0  0
   -3.4158    1.4259   -0.3247 C   0  0  0  0  0  0  0  0  0  0  0  0
   -2.9513    0.2103    0.1674 C   0  0  0  0  0  0  0  0  0  0  0  0
  2  1  1  6
  2  3  1  0
  3  4  1  0
  4  5  1  0
  5  6  2  0
  6  7  1  0
  7  8  2  0
  2  9  1  0
  9 10  1  0
 10 11  2  0
 11 12  1  0
 12 13  2  0
 13 14  1  0
 14 15  2  0
 15 16  1  0
 16 17  1  0
 17 18  2  0
 18 19  1  0
 19 20  2  0
 20 21  1  0
 20 22  1  0
 22 23  2  0
 23 24  1  0
 15 25  1  0
 25 26  2  0
 25 27  1  0
 27 28  1  0
 27 29  1  0
 29 30  2  0
 31 32  1  0
 32 33  1  0
 33 34  1  0
 34 35  1  0
 35 36  1  0
 36 37  1  0
 37 38  1  0
 38 39  2  0
 38 40  1  0
 40 41  1  0
 41 42  1  0
 42 43  2  0
 43 44  1  0
 44 45  1  0
 45 46  2  0
 46 47  1  0
 47 48  2  0
 48 49  1  0
 49 50  2  0
  8  4  1  0
 30 10  1  0
 50 42  1  0
 29 13  1  0
 50 45  1  0
 23 17  1  0
M  CHG  1  31   1
M  END

