
     RDKit          3D

 43 45  0  0  0  0  0  0  0  0999 V2000
   -4.6453    0.8523   -0.9799 C   0  0  0  0  0  0  0  0  0  0  0  0
   -3.4374    0.2776   -0.3270 C   0  0  0  0  0  0  0  0  0  0  0  0
   -3.3754   -1.2165   -0.3295 C   0  0  0  0  0  0  0  0  0  0  0  0
   -3.1217    0.8673    1.0179 C   0  0  0  0  0  0  0  0  0  0  0  0
   -1.8619    0.1534    1.5171 C   0  0  0  0  0  0  0  0  0  0  0  0
   -0.7738    0.3979    0.5512 C   0  0  0  0  0  0  0  0  0  0  0  0
   -0.8927    1.0799   -0.4929 O   0  0  0  0  0  0  0  0  0  0  0  0
    0.5152   -0.1708    0.7994 N   0  0  0  0  0  0  0  0  0  0  0  0
    1.6295    0.0225   -0.0974 C   0  0  0  0  0  0  0  0  0  0  0  0
    2.8234   -0.7095    0.4654 C   0  0  0  0  0  0  0  0  0  0  0  0
    3.9944   -0.5500   -0.4058 C   0  0  0  0  0  0  0  0  0  0  0  0
    5.2579   -1.1334   -0.1205 N   0  0  0  0  0  0  0  0  0  0  0  0
    3.8881    0.1293   -1.4522 O   0  0  0  0  0  0  0  0  0  0  0  0
   -3.4203   -2.4493   -1.2358 C   0  0  0  0  0  0  0  0  0  0  0  0
   -4.5606   -2.7355   -0.1333 C   0  0  2  0  0  0  0  0  0  0  0  0
   -5.3692   -1.3899   -0.0566 C   0  0  0  0  0  0  0  0  0  0  0  0
   -4.7509   -0.2188    0.2774 N   0  0  0  0  0  0  0  0  0  0  0  0
   -4.2524    0.6349   -0.6481 N   0  0  0  0  0  0  0  0  0  0  0  0
   -3.7041    1.6949   -0.0661 C   0  0  0  0  0  0  0  0  0  0  0  0
   -3.8476    1.5278    1.2385 N   0  0  0  0  0  0  0  0  0  0  0  0
   -4.4699    0.3903    1.4447 N   0  0  0  0  0  0  0  0  0  0  0  0
   -3.7161   -2.6719    1.1204 N   0  0  0  0  0  0  0  0  0  0  0  0
   -2.5420   -1.9245    1.1863 C   0  0  0  0  0  0  0  0  0  0  0  0
   -1.8296   -1.8778    2.3554 N   0  0  0  0  0  0  0  0  0  0  0  0
   -0.6731   -1.1982    2.4483 C   0  0  0  0  0  0  0  0  0  0  0  0
   -0.1662   -0.5213    1.3559 C   0  0  0  0  0  0  0  0  0  0  0  0
    1.0260    0.1662    1.4906 C   0  0  0  0  0  0  0  0  0  0  0  0
    1.4848    0.8244    0.3656 C   0  0  0  0  0  0  0  0  0  0  0  0
    2.6786    1.5281    0.4551 O   0  0  0  0  0  0  0  0  0  0  0  0
    3.7540    1.1888   -0.3644 C   0  0  0  0  0  0  0  0  0  0  0  0
    3.6253    0.1637   -1.2520 C   0  0  0  0  0  0  0  0  0  0  0  0
    4.6199   -0.2498   -2.1021 C   0  0  0  0  0  0  0  0  0  0  0  0
    5.8271    0.4431   -2.0288 C   0  0  0  0  0  0  0  0  0  0  0  0
    6.8453    0.0744   -2.8486 F   0  0  0  0  0  0  0  0  0  0  0  0
    6.0074    1.4908   -1.1447 C   0  0  0  0  0  0  0  0  0  0  0  0
    4.9575    1.8563   -0.3130 C   0  0  0  0  0  0  0  0  0  0  0  0
    5.0718    2.8682    0.5691 F   0  0  0  0  0  0  0  0  0  0  0  0
    0.7333    0.7484   -0.7879 C   0  0  0  0  0  0  0  0  0  0  0  0
    1.1592    1.3509   -1.8064 O   0  0  0  0  0  0  0  0  0  0  0  0
   -0.4126    0.0812   -0.8981 N   0  0  0  0  0  0  0  0  0  0  0  0
   -1.1788    0.0275   -2.1451 C   0  0  0  0  0  0  0  0  0  0  0  0
   -0.8793   -0.5648    0.1757 C   0  0  0  0  0  0  0  0  0  0  0  0
   -2.0175   -1.2581    0.1574 N   0  0  0  0  0  0  0  0  0  0  0  0
  1  2  1  0
  2  3  1  0
  2  4  1  0
  4  5  1  0
  5  6  1  0
  6  7  2  0
  6  8  1  0
  8  9  1  0
  9 10  1  0
 10 11  1  0
 11 12  1  0
 11 13  2  0
 15 14  1  6
 15 16  1  0
 16 17  1  0
 17 18  1  0
 18 19  2  0
 19 20  1  0
 20 21  2  0
 15 22  1  0
 22 23  1  0
 23 24  2  0
 24 25  1  0
 25 26  2  0
 26 27  1  0
 27 28  2  0
 28 29  1  0
 29 30  1  0
 30 31  2  0
 31 32  1  0
 32 33  2  0
 33 34  1  0
 33 35  1  0
 35 36  2  0
 36 37  1  0
 28 38  1  0
 38 39  2  0
 38 40  1  0
 40 41  1  0
 40 42  1  0
 42 43  2  0
 21 17  1  0
 43 23  1  0
 42 26  1  0
 36 30  1  0
M  END

