
     RDKit          3D

 44 46  0  0  0  0  0  0  0  0999 V2000
   -6.5770   -1.0031    0.4863 C   0  0  0  0  0  0  0  0  0  0  0  0
   -5.2038   -0.8726    1.3683 C   0  0  2  0  0  0  0  0  0  0  0  0
   -5.1992    0.7579    1.3715 C   0  0  0  0  0  0  0  0  0  0  0  0
   -5.1414    1.2314    0.0336 N   0  0  0  0  0  0  0  0  0  0  0  0
   -4.1517    1.5270   -0.7693 N   0  0  0  0  0  0  0  0  0  0  0  0
   -4.6113    1.9345   -1.9380 C   0  0  0  0  0  0  0  0  0  0  0  0
   -5.9414    1.8988   -1.8818 N   0  0  0  0  0  0  0  0  0  0  0  0
   -6.2529    1.4693   -0.6770 N   0  0  0  0  0  0  0  0  0  0  0  0
   -4.2572   -1.0146    0.1335 N   0  0  0  0  0  0  0  0  0  0  0  0
   -2.8701   -0.9544    0.4546 C   0  0  0  0  0  0  0  0  0  0  0  0
   -2.4131   -0.7882    1.7225 N   0  0  0  0  0  0  0  0  0  0  0  0
   -1.1048   -0.7348    1.9977 C   0  0  0  0  0  0  0  0  0  0  0  0
   -0.1557   -0.8511    0.9667 C   0  0  0  0  0  0  0  0  0  0  0  0
    1.1706   -0.7985    1.2296 C   0  0  0  0  0  0  0  0  0  0  0  0
    2.1343   -0.9183    0.1666 C   0  0  0  0  0  0  0  0  0  0  0  0
    3.4143   -0.8533    0.5501 O   0  0  0  0  0  0  0  0  0  0  0  0
    4.4566   -0.0807    0.3859 C   0  0  0  0  0  0  0  0  0  0  0  0
    4.8742    0.5941    1.5975 C   0  0  0  0  0  0  0  0  0  0  0  0
    5.9449    1.4263    1.5768 C   0  0  0  0  0  0  0  0  0  0  0  0
    6.6513    1.6438    0.4083 C   0  0  0  0  0  0  0  0  0  0  0  0
    7.7261    2.4824    0.3944 F   0  0  0  0  0  0  0  0  0  0  0  0
    6.2609    1.0106   -0.7293 C   0  0  0  0  0  0  0  0  0  0  0  0
    5.1660    0.1509   -0.7344 C   0  0  0  0  0  0  0  0  0  0  0  0
    4.9007   -0.4493   -1.8984 F   0  0  0  0  0  0  0  0  0  0  0  0
    1.5754   -1.0829   -1.0663 C   0  0  0  0  0  0  0  0  0  0  0  0
    2.3245   -1.2040   -2.0761 O   0  0  0  0  0  0  0  0  0  0  0  0
    0.2264   -1.1283   -1.2743 N   0  0  0  0  0  0  0  0  0  0  0  0
   -0.2573   -1.3061   -2.6280 C   0  0  0  0  0  0  0  0  0  0  0  0
   -0.6816   -1.0181   -0.2999 C   0  0  0  0  0  0  0  0  0  0  0  0
   -2.0077   -1.0685   -0.5492 N   0  0  0  0  0  0  0  0  0  0  0  0
   -5.4142    0.6848   -1.0960 N   0  0  0  0  0  0  0  0  0  0  0  0
   -4.0004    0.4443   -1.1892 C   0  0  0  0  0  0  0  0  0  0  0  0
   -3.5474   -0.7147   -1.1172 O   0  0  0  0  0  0  0  0  0  0  0  0
   -3.1507    1.6553   -1.3729 C   0  0  0  0  0  0  0  0  0  0  0  0
   -1.7170    1.1713   -1.4448 C   0  0  0  0  0  0  0  0  0  0  0  0
   -1.4026    0.4736   -0.1743 C   0  0  0  0  0  0  0  0  0  0  0  0
   -0.0221   -0.0567   -0.1040 C   0  0  0  0  0  0  0  0  0  0  0  0
    0.7576    0.0973   -1.0503 O   0  0  0  0  0  0  0  0  0  0  0  0
    0.3898   -0.7415    1.0619 N   0  0  0  0  0  0  0  0  0  0  0  0
    1.7165   -1.3008    1.2374 C   0  0  0  0  0  0  0  0  0  0  0  0
    2.7780   -0.2109    1.1444 C   0  0  0  0  0  0  0  0  0  0  0  0
    4.1211   -0.7697    1.3210 C   0  0  0  0  0  0  0  0  0  0  0  0
    5.2487    0.0901    1.2675 N   0  0  0  0  0  0  0  0  0  0  0  0
    4.2427   -2.0027    1.5164 O   0  0  0  0  0  0  0  0  0  0  0  0
  2  1  1  6
  2  3  1  0
  3  4  1  0
  4  5  1  0
  5  6  2  0
  6  7  1  0
  7  8  2  0
  2  9  1  0
  9 10  1  0
 10 11  2  0
 11 12  1  0
 12 13  2  0
 13 14  1  0
 14 15  2  0
 15 16  1  0
 16 17  1  0
 17 18  2  0
 18 19  1  0
 19 20  2  0
 20 21  1  0
 20 22  1  0
 22 23  2  0
 23 24  1  0
 15 25  1  0
 25 26  2  0
 25 27  1  0
 27 28  1  0
 27 29  1  0
 29 30  2  0
 31 32  1  0
 32 33  2  0
 32 34  1  0
 34 35  1  0
 35 36  1  0
 36 37  1  0
 37 38  2  0
 37 39  1  0
 39 40  1  0
 40 41  1  0
 41 42  1  0
 42 43  1  0
 42 44  2  0
  8  4  1  0
 30 10  1  0
 29 13  1  0
 23 17  1  0
M  END

