
     RDKit          3D

 44 47  0  0  0  0  0  0  0  0999 V2000
    5.8351   -0.7626    0.8282 C   0  0  0  0  0  0  0  0  0  0  0  0
    4.9257    0.0647   -0.0549 C   0  0  0  0  0  0  0  0  0  0  0  0
    3.4995   -0.2526    0.2914 C   0  0  0  0  0  0  0  0  0  0  0  0
    3.2437   -1.0904    1.1905 O   0  0  0  0  0  0  0  0  0  0  0  0
    2.4122    0.3698   -0.3712 N   0  0  0  0  0  0  0  0  0  0  0  0
    1.0689    0.0027    0.0280 C   0  0  0  0  0  0  0  0  0  0  0  0
    0.1074    0.7991   -0.8216 C   0  0  0  0  0  0  0  0  0  0  0  0
   -1.3025    0.4885   -0.4826 C   0  0  0  0  0  0  0  0  0  0  0  0
   -1.9819   -0.5196   -1.1216 C   0  0  0  0  0  0  0  0  0  0  0  0
   -3.3045   -0.8039   -0.7970 C   0  0  0  0  0  0  0  0  0  0  0  0
   -3.9646   -0.0797    0.1744 C   0  0  0  0  0  0  0  0  0  0  0  0
   -5.2809   -0.3543    0.5053 O   0  0  0  0  0  0  0  0  0  0  0  0
   -3.2879    0.9368    0.8224 C   0  0  0  0  0  0  0  0  0  0  0  0
   -1.9701    1.2014    0.4816 C   0  0  0  0  0  0  0  0  0  0  0  0
    4.5538   -0.0861    0.8339 C   0  0  0  0  0  0  0  0  0  0  0  0
    4.7744   -0.7224   -0.6882 C   0  0  2  0  0  0  0  0  0  0  0  0
    6.0363    0.2688   -1.1113 C   0  0  0  0  0  0  0  0  0  0  0  0
    7.0824    0.0684   -0.2076 N   0  0  0  0  0  0  0  0  0  0  0  0
    8.1050   -0.7676   -0.2164 N   0  0  0  0  0  0  0  0  0  0  0  0
    8.8572   -0.5971    0.8719 C   0  0  0  0  0  0  0  0  0  0  0  0
    8.2811    0.3773    1.5787 N   0  0  0  0  0  0  0  0  0  0  0  0
    7.2276    0.7567    0.9161 N   0  0  0  0  0  0  0  0  0  0  0  0
    3.7039    0.2521   -1.3319 N   0  0  0  0  0  0  0  0  0  0  0  0
    2.4005    0.1220   -0.7900 C   0  0  0  0  0  0  0  0  0  0  0  0
    2.1254   -0.7590    0.1839 N   0  0  0  0  0  0  0  0  0  0  0  0
    0.9213   -0.9311    0.7368 C   0  0  0  0  0  0  0  0  0  0  0  0
   -0.1525   -0.1649    0.3038 C   0  0  0  0  0  0  0  0  0  0  0  0
   -1.4039   -0.2920    0.8260 C   0  0  0  0  0  0  0  0  0  0  0  0
   -2.4626    0.5358    0.3259 C   0  0  0  0  0  0  0  0  0  0  0  0
   -3.6198    0.3028    0.9271 O   0  0  0  0  0  0  0  0  0  0  0  0
   -4.8720   -0.1153    0.7708 C   0  0  0  0  0  0  0  0  0  0  0  0
   -5.2270   -1.3431    1.4431 C   0  0  0  0  0  0  0  0  0  0  0  0
   -6.4866   -1.8100    1.3184 C   0  0  0  0  0  0  0  0  0  0  0  0
   -7.4623   -1.1762    0.5796 C   0  0  0  0  0  0  0  0  0  0  0  0
   -8.7094   -1.6500    0.4629 F   0  0  0  0  0  0  0  0  0  0  0  0
   -7.1147   -0.0209   -0.0474 C   0  0  0  0  0  0  0  0  0  0  0  0
   -5.8257    0.5228    0.0384 C   0  0  0  0  0  0  0  0  0  0  0  0
   -5.6130    1.7033   -0.6071 F   0  0  0  0  0  0  0  0  0  0  0  0
   -2.1591    1.4264   -0.6652 C   0  0  0  0  0  0  0  0  0  0  0  0
   -2.9937    2.2062   -1.1831 O   0  0  0  0  0  0  0  0  0  0  0  0
   -0.8791    1.5100   -1.1531 N   0  0  0  0  0  0  0  0  0  0  0  0
   -0.5636    2.4626   -2.2114 C   0  0  0  0  0  0  0  0  0  0  0  0
    0.1135    0.7455   -0.6967 C   0  0  0  0  0  0  0  0  0  0  0  0
    1.3628    0.8619   -1.2078 N   0  0  0  0  0  0  0  0  0  0  0  0
  1  2  1  0
  2  3  1  0
  3  4  2  0
  3  5  1  0
  5  6  1  0
  6  7  1  0
  7  8  1  0
  8  9  2  0
  9 10  1  0
 10 11  2  0
 11 12  1  0
 11 13  1  0
 13 14  2  0
 16 15  1  1
 16 17  1  0
 17 18  1  0
 18 19  1  0
 19 20  2  0
 20 21  1  0
 21 22  2  0
 16 23  1  0
 23 24  1  0
 24 25  2  0
 25 26  1  0
 26 27  2  0
 27 28  1  0
 28 29  2  0
 29 30  1  0
 30 31  1  0
 31 32  2  0
 32 33  1  0
 33 34  2  0
 34 35  1  0
 34 36  1  0
 36 37  2  0
 37 38  1  0
 29 39  1  0
 39 40  2  0
 39 41  1  0
 41 42  1  0
 41 43  1  0
 43 44  2  0
 14  8  1  0
 22 18  1  0
 44 24  1  0
 43 27  1  0
 37 31  1  0
M  END

