
     RDKit          3D

 44 47  0  0  0  0  0  0  0  0999 V2000
   -4.6246    0.5048   -3.0321 C   0  0  0  0  0  0  0  0  0  0  0  0
   -5.1548   -0.2332   -1.6518 C   0  0  2  0  0  0  0  0  0  0  0  0
   -4.6264    0.9803   -0.6702 C   0  0  0  0  0  0  0  0  0  0  0  0
   -5.0178    0.4978    0.6565 N   0  0  0  0  0  0  0  0  0  0  0  0
   -4.2664   -0.2357    1.4178 N   0  0  0  0  0  0  0  0  0  0  0  0
   -4.9240   -0.5058    2.5694 C   0  0  0  0  0  0  0  0  0  0  0  0
   -6.1260    0.1148    2.4535 N   0  0  0  0  0  0  0  0  0  0  0  0
   -6.1419    0.7068    1.2883 N   0  0  0  0  0  0  0  0  0  0  0  0
   -3.8774   -1.1288   -1.4901 N   0  0  0  0  0  0  0  0  0  0  0  0
   -2.6253   -0.5524   -1.3925 C   0  0  0  0  0  0  0  0  0  0  0  0
   -2.4686    0.7787   -1.4341 N   0  0  0  0  0  0  0  0  0  0  0  0
   -1.2364    1.3003   -1.3360 C   0  0  0  0  0  0  0  0  0  0  0  0
   -0.1521    0.4922   -1.1955 C   0  0  0  0  0  0  0  0  0  0  0  0
    1.1309    0.9809   -1.0911 C   0  0  0  0  0  0  0  0  0  0  0  0
    2.1710    0.0882   -0.9513 C   0  0  0  0  0  0  0  0  0  0  0  0
    3.4458    0.6128   -0.8492 O   0  0  0  0  0  0  0  0  0  0  0  0
    4.2778    0.4196    0.2378 C   0  0  0  0  0  0  0  0  0  0  0  0
    5.4770   -0.1906    0.0433 C   0  0  0  0  0  0  0  0  0  0  0  0
    6.3537   -0.4145    1.0804 C   0  0  0  0  0  0  0  0  0  0  0  0
    6.0047   -0.0085    2.3498 C   0  0  0  0  0  0  0  0  0  0  0  0
    6.8600   -0.2198    3.4001 F   0  0  0  0  0  0  0  0  0  0  0  0
    4.7833    0.6113    2.5392 C   0  0  0  0  0  0  0  0  0  0  0  0
    3.9102    0.8326    1.4971 C   0  0  0  0  0  0  0  0  0  0  0  0
    2.7067    1.4404    1.6681 F   0  0  0  0  0  0  0  0  0  0  0  0
    1.9550   -1.2727   -0.9142 C   0  0  0  0  0  0  0  0  0  0  0  0
    2.9219   -2.0588   -0.7862 O   0  0  0  0  0  0  0  0  0  0  0  0
    0.7053   -1.7429   -1.0162 N   0  0  0  0  0  0  0  0  0  0  0  0
    0.4138   -3.1669   -0.9838 C   0  0  0  0  0  0  0  0  0  0  0  0
   -0.3165   -0.8791   -1.1529 C   0  0  0  0  0  0  0  0  0  0  0  0
   -1.5588   -1.3497   -1.2542 N   0  0  0  0  0  0  0  0  0  0  0  0
    1.9921    0.7786   -0.5022 O   0  0  0  0  0  0  0  0  0  0  0  0
    2.2912    0.5197    0.6916 C   0  0  0  0  0  0  0  0  0  0  0  0
    3.7395    0.4101    1.0822 C   0  0  0  0  0  0  0  0  0  0  0  0
    4.6269    0.6436   -0.0957 C   0  0  0  0  0  0  0  0  0  0  0  0
    5.9481    0.5282    0.3331 O   0  0  0  0  0  0  0  0  0  0  0  0
    1.2445    0.3424    1.6182 N   0  0  0  0  0  0  0  0  0  0  0  0
   -0.1649    0.4397    1.2823 C   0  0  0  0  0  0  0  0  0  0  0  0
   -0.4445   -0.6154    0.2302 C   0  0  0  0  0  0  0  0  0  0  0  0
   -1.8870   -0.5715   -0.1646 C   0  0  0  0  0  0  0  0  0  0  0  0
   -2.8140   -1.3406    0.5133 C   0  0  0  0  0  0  0  0  0  0  0  0
   -4.1362   -1.2453    0.0869 C   0  0  0  0  0  0  0  0  0  0  0  0
   -4.5284   -0.4402   -0.9473 C   0  0  0  0  0  0  0  0  0  0  0  0
   -3.5944    0.3064   -1.5971 C   0  0  0  0  0  0  0  0  0  0  0  0
   -2.2729    0.2441   -1.2096 C   0  0  0  0  0  0  0  0  0  0  0  0
  2  1  1  6
  2  3  1  0
  3  4  1  0
  4  5  1  0
  5  6  2  0
  6  7  1  0
  7  8  2  0
  2  9  1  0
  9 10  1  0
 10 11  2  0
 11 12  1  0
 12 13  2  0
 13 14  1  0
 14 15  2  0
 15 16  1  0
 16 17  1  0
 17 18  2  0
 18 19  1  0
 19 20  2  0
 20 21  1  0
 20 22  1  0
 22 23  2  0
 23 24  1  0
 15 25  1  0
 25 26  2  0
 25 27  1  0
 27 28  1  0
 27 29  1  0
 29 30  2  0
 31 32  2  0
 32 33  1  0
 33 34  1  0
 34 35  1  0
 32 36  1  0
 36 37  1  0
 37 38  1  0
 38 39  1  0
 39 40  2  0
 40 41  1  0
 41 42  2  0
 42 43  1  0
 43 44  2  0
  8  4  1  0
 30 10  1  0
 44 39  1  0
 29 13  1  0
 23 17  1  0
M  END

