
     RDKit          3D

 41 43  0  0  0  0  0  0  0  0999 V2000
   -3.1489    1.6935    0.2248 C   0  0  0  0  0  0  0  0  0  0  0  0
   -3.1210    0.2489   -0.2087 C   0  0  0  0  0  0  0  0  0  0  0  0
   -3.9641    0.1029   -1.4660 C   0  0  0  0  0  0  0  0  0  0  0  0
   -1.7130   -0.2162   -0.5230 C   0  0  0  0  0  0  0  0  0  0  0  0
   -0.8695   -0.0680    0.7070 C   0  0  0  0  0  0  0  0  0  0  0  0
    0.5212   -0.5235    0.4093 C   0  0  0  0  0  0  0  0  0  0  0  0
    0.8333   -0.9493   -0.7330 O   0  0  0  0  0  0  0  0  0  0  0  0
    1.5581   -0.5055    1.3757 N   0  0  0  0  0  0  0  0  0  0  0  0
    2.9154   -0.9451    1.1014 C   0  0  0  0  0  0  0  0  0  0  0  0
    3.4768   -0.0937   -0.0067 C   0  0  0  0  0  0  0  0  0  0  0  0
    3.5118    1.2559    0.3158 O   0  0  0  0  0  0  0  0  0  0  0  0
    6.0506   -1.0666    0.1080 C   0  0  0  0  0  0  0  0  0  0  0  0
    4.4717   -0.7749   -0.3922 C   0  0  2  0  0  0  0  0  0  0  0  0
    4.3833    0.6332    0.5233 C   0  0  0  0  0  0  0  0  0  0  0  0
    5.4465    1.4321   -0.0343 N   0  0  0  0  0  0  0  0  0  0  0  0
    6.7053    1.4723    0.3425 N   0  0  0  0  0  0  0  0  0  0  0  0
    7.3815    2.3435   -0.4280 C   0  0  0  0  0  0  0  0  0  0  0  0
    6.4752    2.8349   -1.2951 N   0  0  0  0  0  0  0  0  0  0  0  0
    5.3013    2.2698   -1.0424 N   0  0  0  0  0  0  0  0  0  0  0  0
    3.8566   -1.6699    0.7606 N   0  0  0  0  0  0  0  0  0  0  0  0
    2.4459   -1.7588    0.7808 C   0  0  0  0  0  0  0  0  0  0  0  0
    1.7904   -2.4826    1.7020 N   0  0  0  0  0  0  0  0  0  0  0  0
    0.4476   -2.5524    1.7013 C   0  0  0  0  0  0  0  0  0  0  0  0
   -0.3258   -1.8923    0.7654 C   0  0  0  0  0  0  0  0  0  0  0  0
   -1.7015   -1.9478    0.7435 C   0  0  0  0  0  0  0  0  0  0  0  0
   -2.3928   -1.2482   -0.2394 C   0  0  0  0  0  0  0  0  0  0  0  0
   -3.7753   -1.2810   -0.2925 O   0  0  0  0  0  0  0  0  0  0  0  0
   -4.5451   -0.1082   -0.1738 C   0  0  0  0  0  0  0  0  0  0  0  0
   -3.8708    1.0824    0.0008 C   0  0  0  0  0  0  0  0  0  0  0  0
   -4.5682    2.2576    0.1225 C   0  0  0  0  0  0  0  0  0  0  0  0
   -5.9390    2.2650    0.0725 C   0  0  0  0  0  0  0  0  0  0  0  0
   -6.6600    3.4285    0.1919 F   0  0  0  0  0  0  0  0  0  0  0  0
   -6.5891    1.0606   -0.1029 C   0  0  0  0  0  0  0  0  0  0  0  0
   -5.9034   -0.1282   -0.2268 C   0  0  0  0  0  0  0  0  0  0  0  0
   -6.5430   -1.3165   -0.3998 F   0  0  0  0  0  0  0  0  0  0  0  0
   -1.6993   -0.5112   -1.1757 C   0  0  0  0  0  0  0  0  0  0  0  0
   -2.3323    0.1315   -2.0791 O   0  0  0  0  0  0  0  0  0  0  0  0
   -0.3556   -0.4869   -1.1142 N   0  0  0  0  0  0  0  0  0  0  0  0
    0.3881    0.2806   -2.0877 C   0  0  0  0  0  0  0  0  0  0  0  0
    0.3576   -1.1519   -0.1759 C   0  0  0  0  0  0  0  0  0  0  0  0
    1.6998   -1.1147   -0.1319 N   0  0  0  0  0  0  0  0  0  0  0  0
  1  2  1  0
  2  3  1  0
  2  4  1  0
  4  5  1  0
  5  6  1  0
  6  7  2  0
  6  8  1  0
  8  9  1  0
  9 10  1  0
 10 11  1  0
 13 12  1  1
 13 14  1  0
 14 15  1  0
 15 16  1  0
 16 17  2  0
 17 18  1  0
 18 19  2  0
 13 20  1  0
 20 21  1  0
 21 22  2  0
 22 23  1  0
 23 24  2  0
 24 25  1  0
 25 26  2  0
 26 27  1  0
 27 28  1  0
 28 29  2  0
 29 30  1  0
 30 31  2  0
 31 32  1  0
 31 33  1  0
 33 34  2  0
 34 35  1  0
 26 36  1  0
 36 37  2  0
 36 38  1  0
 38 39  1  0
 38 40  1  0
 40 41  2  0
 19 15  1  0
 41 21  1  0
 40 24  1  0
 34 28  1  0
M  END

