
     RDKit          3D

 46 49  0  0  0  0  0  0  0  0999 V2000
   -4.5675    2.1962    0.0716 C   0  0  0  0  0  0  0  0  0  0  0  0
   -4.6459    1.5807   -1.4673 C   0  0  2  0  0  0  0  0  0  0  0  0
   -6.1266    0.8881   -1.2102 C   0  0  0  0  0  0  0  0  0  0  0  0
   -6.0233   -0.0324   -0.1590 N   0  0  0  0  0  0  0  0  0  0  0  0
   -6.1811    0.1090    1.1458 N   0  0  0  0  0  0  0  0  0  0  0  0
   -5.9810   -1.0628    1.7755 C   0  0  0  0  0  0  0  0  0  0  0  0
   -5.6910   -1.9422    0.8023 N   0  0  0  0  0  0  0  0  0  0  0  0
   -5.7201   -1.3179   -0.3335 N   0  0  0  0  0  0  0  0  0  0  0  0
   -3.7726    0.3112   -1.1064 N   0  0  0  0  0  0  0  0  0  0  0  0
   -2.4632    0.6002   -0.6332 C   0  0  0  0  0  0  0  0  0  0  0  0
   -2.0559    1.8700   -0.5227 N   0  0  0  0  0  0  0  0  0  0  0  0
   -0.8275    2.1746   -0.0798 C   0  0  0  0  0  0  0  0  0  0  0  0
    0.0175    1.1530    0.2630 C   0  0  0  0  0  0  0  0  0  0  0  0
    1.2907    1.3912    0.7244 C   0  0  0  0  0  0  0  0  0  0  0  0
    2.1077    0.3315    1.0581 C   0  0  0  0  0  0  0  0  0  0  0  0
    3.3595    0.6440    1.5094 O   0  0  0  0  0  0  0  0  0  0  0  0
    4.4581    0.1699    0.7997 C   0  0  0  0  0  0  0  0  0  0  0  0
    5.4011   -0.6574    1.3707 C   0  0  0  0  0  0  0  0  0  0  0  0
    6.4825   -1.1158    0.6489 C   0  0  0  0  0  0  0  0  0  0  0  0
    6.6904   -0.7823   -0.6734 C   0  0  0  0  0  0  0  0  0  0  0  0
    7.7601   -1.2423   -1.3689 F   0  0  0  0  0  0  0  0  0  0  0  0
    5.7408    0.0466   -1.2367 C   0  0  0  0  0  0  0  0  0  0  0  0
    4.6563    0.5093   -0.5211 C   0  0  0  0  0  0  0  0  0  0  0  0
    3.7150    1.3299   -1.0765 F   0  0  0  0  0  0  0  0  0  0  0  0
    1.6443   -0.9595    0.9276 C   0  0  0  0  0  0  0  0  0  0  0  0
    2.4241   -1.9035    1.2440 O   0  0  0  0  0  0  0  0  0  0  0  0
    0.4182   -1.1838    0.4830 N   0  0  0  0  0  0  0  0  0  0  0  0
   -0.0634   -2.5606    0.3484 C   0  0  0  0  0  0  0  0  0  0  0  0
   -0.4026   -0.1526    0.1488 C   0  0  0  0  0  0  0  0  0  0  0  0
   -1.6448   -0.3923   -0.3011 N   0  0  0  0  0  0  0  0  0  0  0  0
    4.9240    0.7752   -0.1219 O   0  0  0  0  0  1  0  0  0  0  0  0
    4.5557    1.7634    0.7747 C   0  0  0  0  0  0  0  0  0  0  0  0
    5.3763    2.6442    1.1325 O   0  0  0  0  0  0  0  0  0  0  0  0
    3.1845    1.8116    1.3383 C   0  0  0  0  0  0  0  0  0  0  0  0
    2.3439    0.6739    0.7918 C   0  0  0  0  0  0  0  0  0  0  0  0
    1.0104    0.7621    1.3715 N   0  0  0  0  0  0  0  0  0  0  0  0
   -0.0159   -0.1663    1.0563 C   0  0  0  0  0  0  0  0  0  0  0  0
    0.2700   -1.0812    0.2473 O   0  0  0  0  0  0  0  0  0  0  0  0
   -1.3445   -0.0553    1.6515 C   0  0  0  0  0  0  0  0  0  0  0  0
   -2.3372   -1.0681    1.2475 C   0  0  0  0  0  0  0  0  0  0  0  0
   -2.6573   -1.1196   -0.1986 C   0  0  0  0  0  0  0  0  0  0  0  0
   -1.9799   -1.9165   -1.0980 C   0  0  0  0  0  0  0  0  0  0  0  0
   -2.3063   -1.9389   -2.4408 C   0  0  0  0  0  0  0  0  0  0  0  0
   -3.3290   -1.1648   -2.9573 C   0  0  0  0  0  0  0  0  0  0  0  0
   -4.0143   -0.3632   -2.0673 C   0  0  0  0  0  0  0  0  0  0  0  0
   -3.6804   -0.3480   -0.7276 C   0  0  0  0  0  0  0  0  0  0  0  0
  2  1  1  1
  2  3  1  0
  3  4  1  0
  4  5  1  0
  5  6  2  0
  6  7  1  0
  7  8  2  0
  2  9  1  0
  9 10  1  0
 10 11  2  0
 11 12  1  0
 12 13  2  0
 13 14  1  0
 14 15  2  0
 15 16  1  0
 16 17  1  0
 17 18  2  0
 18 19  1  0
 19 20  2  0
 20 21  1  0
 20 22  1  0
 22 23  2  0
 23 24  1  0
 15 25  1  0
 25 26  2  0
 25 27  1  0
 27 28  1  0
 27 29  1  0
 29 30  2  0
 31 32  1  0
 32 33  2  0
 32 34  1  0
 34 35  1  0
 35 36  1  0
 36 37  1  0
 37 38  2  0
 37 39  1  0
 39 40  1  0
 40 41  1  0
 41 42  2  0
 42 43  1  0
 43 44  2  0
 44 45  1  0
 45 46  2  0
  8  4  1  0
 30 10  1  0
 46 41  1  0
 29 13  1  0
 23 17  1  0
M  RAD  1  31   2
M  END

