
     RDKit          3D

 43 45  0  0  0  0  0  0  0  0999 V2000
   -2.5682    1.6438    0.0760 C   0  0  0  0  0  0  0  0  0  0  0  0
   -2.5607    0.4876   -0.9022 C   0  0  0  0  0  0  0  0  0  0  0  0
   -2.9397   -0.8348   -0.0475 C   0  0  2  0  0  0  0  0  0  0  0  0
   -4.3463   -0.2771    0.5058 C   0  0  0  0  0  0  0  0  0  0  0  0
   -2.0560   -0.5380    1.2310 C   0  0  0  0  0  0  0  0  0  0  0  0
   -0.7452   -0.5013    1.1185 N   0  0  0  0  0  0  0  0  0  0  0  0
    0.4312   -0.0441    0.6222 C   0  0  0  0  0  0  0  0  0  0  0  0
    0.3317    0.8706   -0.2323 O   0  0  0  0  0  0  0  0  0  0  0  0
    1.7867   -0.5171    0.9902 C   0  0  0  0  0  0  0  0  0  0  0  0
    2.9361   -0.0564    0.2661 C   0  0  0  0  0  0  0  0  0  0  0  0
    3.1259   -0.3381   -1.1685 C   0  0  0  0  0  0  0  0  0  0  0  0
    2.0731    0.1899   -2.0754 C   0  0  0  0  0  0  0  0  0  0  0  0
    4.5314   -0.0849   -1.6459 C   0  0  0  0  0  0  0  0  0  0  0  0
    3.4904   -3.2786    1.1814 C   0  0  0  0  0  0  0  0  0  0  0  0
    4.6230   -2.3089    0.4976 C   0  0  2  0  0  0  0  0  0  0  0  0
    3.8815   -0.9277    0.9469 C   0  0  0  0  0  0  0  0  0  0  0  0
    4.7106    0.1499    0.4466 N   0  0  0  0  0  0  0  0  0  0  0  0
    5.7106    0.7952    0.9787 N   0  0  0  0  0  0  0  0  0  0  0  0
    6.1311    1.7181    0.0720 C   0  0  0  0  0  0  0  0  0  0  0  0
    5.3602    1.6146   -1.0219 N   0  0  0  0  0  0  0  0  0  0  0  0
    4.5076    0.6523   -0.7605 N   0  0  0  0  0  0  0  0  0  0  0  0
    3.9952   -2.3910   -0.9227 N   0  0  0  0  0  0  0  0  0  0  0  0
    2.6329   -2.0136   -1.0342 C   0  0  0  0  0  0  0  0  0  0  0  0
    2.0031   -2.0477   -2.2125 N   0  0  0  0  0  0  0  0  0  0  0  0
    0.7162   -1.7060   -2.3830 C   0  0  0  0  0  0  0  0  0  0  0  0
   -0.0505   -1.2822   -1.2866 C   0  0  0  0  0  0  0  0  0  0  0  0
   -1.3387   -0.9260   -1.3827 C   0  0  0  0  0  0  0  0  0  0  0  0
   -2.0418   -0.5048   -0.2013 C   0  0  0  0  0  0  0  0  0  0  0  0
   -3.3288   -0.1754   -0.4285 O   0  0  0  0  0  0  0  0  0  0  0  0
   -4.1266    0.9003   -0.3705 C   0  0  0  0  0  0  0  0  0  0  0  0
   -4.6348    1.3859   -1.6302 C   0  0  0  0  0  0  0  0  0  0  0  0
   -5.4502    2.4631   -1.7015 C   0  0  0  0  0  0  0  0  0  0  0  0
   -5.8642    3.1830   -0.6051 C   0  0  0  0  0  0  0  0  0  0  0  0
   -6.6784    4.2597   -0.6978 F   0  0  0  0  0  0  0  0  0  0  0  0
   -5.3992    2.7455    0.6044 C   0  0  0  0  0  0  0  0  0  0  0  0
   -4.5487    1.6233    0.6977 C   0  0  0  0  0  0  0  0  0  0  0  0
   -4.1761    1.2371    1.9528 F   0  0  0  0  0  0  0  0  0  0  0  0
   -1.3525   -0.4892    0.9770 C   0  0  0  0  0  0  0  0  0  0  0  0
   -1.8602   -0.1447    2.0747 O   0  0  0  0  0  0  0  0  0  0  0  0
   -0.0372   -0.8620    1.0222 N   0  0  0  0  0  0  0  0  0  0  0  0
    0.6080   -0.8089    2.3296 C   0  0  0  0  0  0  0  0  0  0  0  0
    0.6129   -1.2520   -0.0767 C   0  0  0  0  0  0  0  0  0  0  0  0
    1.9043   -1.6093    0.0158 N   0  0  0  0  0  0  0  0  0  0  0  0
  1  2  1  0
  2  3  1  0
  3  4  1  1
  3  5  1  0
  5  6  1  0
  6  7  1  0
  7  8  2  0
  7  9  1  0
  9 10  1  0
 10 11  1  0
 11 12  1  0
 11 13  1  0
 15 14  1  1
 15 16  1  0
 16 17  1  0
 17 18  1  0
 18 19  2  0
 19 20  1  0
 20 21  2  0
 15 22  1  0
 22 23  1  0
 23 24  2  0
 24 25  1  0
 25 26  2  0
 26 27  1  0
 27 28  2  0
 28 29  1  0
 29 30  1  0
 30 31  2  0
 31 32  1  0
 32 33  2  0
 33 34  1  0
 33 35  1  0
 35 36  2  0
 36 37  1  0
 28 38  1  0
 38 39  2  0
 38 40  1  0
 40 41  1  0
 40 42  1  0
 42 43  2  0
 21 17  1  0
 43 23  1  0
 42 26  1  0
 36 30  1  0
M  END

