
     RDKit          3D

 42 44  0  0  0  0  0  0  0  0999 V2000
   -1.9311    0.7289    1.6188 C   0  0  0  0  0  0  0  0  0  0  0  0
   -2.7970    0.5581    0.4256 C   0  0  0  0  0  0  0  0  0  0  0  0
   -4.2736    0.5960    0.7537 C   0  0  0  0  0  0  0  0  0  0  0  0
   -2.5157   -0.5429   -0.4919 C   0  0  0  0  0  0  0  0  0  0  0  0
   -1.2229   -0.6238   -1.1725 C   0  0  0  0  0  0  0  0  0  0  0  0
   -0.0098   -0.7481   -0.3846 C   0  0  0  0  0  0  0  0  0  0  0  0
    0.1294   -0.8380    0.8381 O   0  0  0  0  0  0  0  0  0  0  0  0
    1.2140   -0.7686   -1.1613 N   0  0  0  0  0  0  0  0  0  0  0  0
    2.5051   -0.8878   -0.5190 C   0  0  0  0  0  0  0  0  0  0  0  0
    2.4624    0.4833    0.4321 C   0  0  1  0  0  0  0  0  0  0  0  0
    4.1211    0.6381    0.4469 C   0  0  0  0  0  0  0  0  0  0  0  0
    2.3182    1.4048   -0.7859 O   0  0  0  0  0  0  0  0  0  0  0  0
    5.5919   -0.7070    1.6634 C   0  0  0  0  0  0  0  0  0  0  0  0
    4.0924   -0.6637    0.9108 C   0  0  2  0  0  0  0  0  0  0  0  0
    4.6133    0.5211   -0.1570 C   0  0  0  0  0  0  0  0  0  0  0  0
    5.7118   -0.1812   -0.8042 N   0  0  0  0  0  0  0  0  0  0  0  0
    6.9477   -0.1397   -0.3528 N   0  0  0  0  0  0  0  0  0  0  0  0
    7.6997   -0.8799   -1.1637 C   0  0  0  0  0  0  0  0  0  0  0  0
    6.8679   -1.3716   -2.1253 N   0  0  0  0  0  0  0  0  0  0  0  0
    5.6432   -0.9216   -1.8761 N   0  0  0  0  0  0  0  0  0  0  0  0
    3.5316    0.4021    1.9319 N   0  0  0  0  0  0  0  0  0  0  0  0
    2.1916    0.7703    1.6684 C   0  0  0  0  0  0  0  0  0  0  0  0
    1.5376    1.6762    2.4410 N   0  0  0  0  0  0  0  0  0  0  0  0
    0.2675    2.0445    2.2152 C   0  0  0  0  0  0  0  0  0  0  0  0
   -0.4056    1.4847    1.1585 C   0  0  0  0  0  0  0  0  0  0  0  0
   -1.7147    1.8038    0.8506 C   0  0  0  0  0  0  0  0  0  0  0  0
   -2.3271    1.1999   -0.2283 C   0  0  0  0  0  0  0  0  0  0  0  0
   -3.6562    1.5304   -0.5328 O   0  0  0  0  0  0  0  0  0  0  0  0
   -4.5882    0.5023   -0.5135 C   0  0  0  0  0  0  0  0  0  0  0  0
   -5.3111    0.1736   -1.6434 C   0  0  0  0  0  0  0  0  0  0  0  0
   -6.2370   -0.8581   -1.5992 C   0  0  0  0  0  0  0  0  0  0  0  0
   -6.4512   -1.5699   -0.4331 C   0  0  0  0  0  0  0  0  0  0  0  0
   -7.3544   -2.5854   -0.3677 F   0  0  0  0  0  0  0  0  0  0  0  0
   -5.7053   -1.2090    0.6797 C   0  0  0  0  0  0  0  0  0  0  0  0
   -4.7819   -0.1944    0.6704 C   0  0  0  0  0  0  0  0  0  0  0  0
   -4.0762    0.1266    1.7733 F   0  0  0  0  0  0  0  0  0  0  0  0
   -1.6383    0.2835   -0.9953 C   0  0  0  0  0  0  0  0  0  0  0  0
   -2.2124   -0.2625   -1.9817 O   0  0  0  0  0  0  0  0  0  0  0  0
   -0.3677   -0.0201   -0.6888 N   0  0  0  0  0  0  0  0  0  0  0  0
    0.3633   -0.9957   -1.5065 C   0  0  0  0  0  0  0  0  0  0  0  0
    0.2415    0.5649    0.3649 C   0  0  0  0  0  0  0  0  0  0  0  0
    1.5264    0.2313    0.6418 N   0  0  0  0  0  0  0  0  0  0  0  0
  1  2  1  0
  2  3  1  0
  2  4  1  0
  4  5  1  0
  5  6  1  0
  6  7  2  0
  6  8  1  0
  8  9  1  0
  9 10  1  0
 10 11  1  6
 10 12  1  0
 14 13  1  1
 14 15  1  0
 15 16  1  0
 16 17  1  0
 17 18  2  0
 18 19  1  0
 19 20  2  0
 14 21  1  0
 21 22  1  0
 22 23  2  0
 23 24  1  0
 24 25  2  0
 25 26  1  0
 26 27  2  0
 27 28  1  0
 28 29  1  0
 29 30  2  0
 30 31  1  0
 31 32  2  0
 32 33  1  0
 32 34  1  0
 34 35  2  0
 35 36  1  0
 27 37  1  0
 37 38  2  0
 37 39  1  0
 39 40  1  0
 39 41  1  0
 41 42  2  0
 20 16  1  0
 42 22  1  0
 41 25  1  0
 35 29  1  0
M  END

