
     RDKit          3D

 42 44  0  0  0  0  0  0  0  0999 V2000
    4.4375    0.5496    0.4604 C   0  0  0  0  0  0  0  0  0  0  0  0
    3.6068    0.6847   -0.7939 C   0  0  0  0  0  0  0  0  0  0  0  0
    2.0830    1.0542   -0.1988 C   0  0  2  0  0  0  0  0  0  0  0  0
    2.0686   -0.3914    0.6371 C   0  0  0  0  0  0  0  0  0  0  0  0
    1.3382    0.4148   -1.5022 C   0  0  0  0  0  0  0  0  0  0  0  0
   -0.0466    0.5696   -1.3863 N   0  0  0  0  0  0  0  0  0  0  0  0
   -0.9733    0.1098   -0.4474 C   0  0  0  0  0  0  0  0  0  0  0  0
   -0.5705   -0.5792    0.4981 O   0  0  0  0  0  0  0  0  0  0  0  0
   -2.4367    0.4603   -0.6040 C   0  0  0  0  0  0  0  0  0  0  0  0
   -3.0919   -0.3024    0.7262 C   0  0  1  0  0  0  0  0  0  0  0  0
   -2.1556    0.5929    1.7946 C   0  0  0  0  0  0  0  0  0  0  0  0
   -4.2595    0.7185    0.8162 O   0  0  0  0  0  0  0  0  0  0  0  0
   -4.5285    0.6546   -1.3619 C   0  0  0  0  0  0  0  0  0  0  0  0
   -5.0330   -0.8912   -1.0704 C   0  0  2  0  0  0  0  0  0  0  0  0
   -6.2257   -0.4508   -0.0286 C   0  0  0  0  0  0  0  0  0  0  0  0
   -5.6350    0.2463    1.0563 N   0  0  0  0  0  0  0  0  0  0  0  0
   -5.1621   -0.2187    2.2200 N   0  0  0  0  0  0  0  0  0  0  0  0
   -4.7095    0.8439    2.8990 C   0  0  0  0  0  0  0  0  0  0  0  0
   -4.8911    1.9701    2.1789 N   0  0  0  0  0  0  0  0  0  0  0  0
   -5.4597    1.5716    1.0559 N   0  0  0  0  0  0  0  0  0  0  0  0
   -3.9665   -1.1612    0.0447 N   0  0  0  0  0  0  0  0  0  0  0  0
   -2.6421   -1.0356   -0.4225 C   0  0  0  0  0  0  0  0  0  0  0  0
   -2.3679   -0.7173   -1.6940 N   0  0  0  0  0  0  0  0  0  0  0  0
   -1.1056   -0.6055   -2.1084 C   0  0  0  0  0  0  0  0  0  0  0  0
   -0.0551   -0.8081   -1.2645 C   0  0  0  0  0  0  0  0  0  0  0  0
    1.2754   -0.6974   -1.6723 C   0  0  0  0  0  0  0  0  0  0  0  0
    2.2472   -0.9236   -0.7361 C   0  0  0  0  0  0  0  0  0  0  0  0
    3.5591   -0.8284   -1.0820 O   0  0  0  0  0  0  0  0  0  0  0  0
    4.3817    0.0917   -0.4445 C   0  0  0  0  0  0  0  0  0  0  0  0
    5.5068   -0.2646    0.2700 C   0  0  0  0  0  0  0  0  0  0  0  0
    6.2844    0.6946    0.8813 C   0  0  0  0  0  0  0  0  0  0  0  0
    5.9906    2.0410    0.8168 C   0  0  0  0  0  0  0  0  0  0  0  0
    6.7537    2.9897    1.4175 F   0  0  0  0  0  0  0  0  0  0  0  0
    4.8652    2.3967    0.1021 C   0  0  0  0  0  0  0  0  0  0  0  0
    4.0809    1.4371   -0.5138 C   0  0  0  0  0  0  0  0  0  0  0  0
    2.9770    1.7965   -1.2138 F   0  0  0  0  0  0  0  0  0  0  0  0
    1.9212   -1.2495    0.5646 C   0  0  0  0  0  0  0  0  0  0  0  0
    2.8554   -1.4484    1.3897 O   0  0  0  0  0  0  0  0  0  0  0  0
    0.6448   -1.3569    0.9607 N   0  0  0  0  0  0  0  0  0  0  0  0
    0.3695   -1.6990    2.3276 C   0  0  0  0  0  0  0  0  0  0  0  0
   -0.3349   -1.1341    0.0378 C   0  0  0  0  0  0  0  0  0  0  0  0
   -1.5962   -1.2431    0.4404 N   0  0  0  0  0  0  0  0  0  0  0  0
  1  2  1  0
  2  3  1  0
  3  4  1  1
  3  5  1  0
  5  6  1  0
  6  7  1  0
  7  8  2  0
  7  9  1  0
  9 10  1  0
 10 11  1  1
 10 12  1  0
 14 13  1  6
 14 15  1  0
 15 16  1  0
 16 17  1  0
 17 18  2  0
 18 19  1  0
 19 20  2  0
 14 21  1  0
 21 22  1  0
 22 23  2  0
 23 24  1  0
 24 25  2  0
 25 26  1  0
 26 27  2  0
 27 28  1  0
 28 29  1  0
 29 30  2  0
 30 31  1  0
 31 32  2  0
 32 33  1  0
 32 34  1  0
 34 35  2  0
 35 36  1  0
 27 37  1  0
 37 38  2  0
 37 39  1  0
 39 40  1  0
 39 41  1  0
 41 42  2  0
 20 16  1  0
 42 22  1  0
 41 25  1  0
 35 29  1  0
M  END

