
     RDKit          3D

 45 48  0  0  0  0  0  0  0  0999 V2000
   -4.1282    0.6435    2.7257 C   0  0  0  0  0  0  0  0  0  0  0  0
   -3.4556   -0.1727    1.6737 C   0  0  0  0  0  0  0  0  0  0  0  0
   -3.8254    0.6390    0.3026 C   0  0  2  0  0  0  0  0  0  0  0  0
   -3.0292   -0.3749   -0.6870 C   0  0  0  0  0  0  0  0  0  0  0  0
   -2.6369    1.7289    0.4271 C   0  0  0  0  0  0  0  0  0  0  0  0
   -1.3420    1.0919    0.4633 C   0  0  0  0  0  0  0  0  0  0  0  0
   -1.2469   -0.1615    0.5040 O   0  0  0  0  0  0  0  0  0  0  0  0
   -0.0917    1.7850    0.4567 N   0  0  0  0  0  0  0  0  0  0  0  0
    1.1324    1.0193    0.4959 C   0  0  0  0  0  0  0  0  0  0  0  0
    1.2171    0.1106   -0.6894 C   0  0  0  0  0  0  0  0  0  0  0  0
    2.4723   -0.6628   -0.6327 C   0  0  0  0  0  0  0  0  0  0  0  0
    3.4449   -0.5861    0.3495 C   0  0  0  0  0  0  0  0  0  0  0  0
    4.4354   -1.4231    0.0795 N   0  0  0  0  0  0  0  0  0  0  0  0
    4.1210   -2.0506   -1.0748 C   0  0  0  0  0  0  0  0  0  0  0  0
    2.9327   -1.5865   -1.5005 N   0  0  0  0  0  0  0  0  0  0  0  0
    4.0082    0.4564    0.1415 C   0  0  0  0  0  0  0  0  0  0  0  0
    4.5232   -0.8917   -0.6395 C   0  0  2  0  0  0  0  0  0  0  0  0
    5.8588   -0.1379   -1.2441 C   0  0  0  0  0  0  0  0  0  0  0  0
    6.6056    0.2995   -0.0962 N   0  0  0  0  0  0  0  0  0  0  0  0
    6.5654    1.4187    0.5827 N   0  0  0  0  0  0  0  0  0  0  0  0
    7.4723    1.3387    1.5804 C   0  0  0  0  0  0  0  0  0  0  0  0
    8.0747    0.1488    1.5063 N   0  0  0  0  0  0  0  0  0  0  0  0
    7.5302   -0.4706    0.4747 N   0  0  0  0  0  0  0  0  0  0  0  0
    3.6903   -0.6154   -1.9374 N   0  0  0  0  0  0  0  0  0  0  0  0
    2.3091   -0.5353   -1.8048 C   0  0  0  0  0  0  0  0  0  0  0  0
    1.5696   -0.3010   -2.8905 N   0  0  0  0  0  0  0  0  0  0  0  0
    0.2315   -0.2125   -2.8283 C   0  0  0  0  0  0  0  0  0  0  0  0
   -0.4432   -0.3636   -1.6137 C   0  0  0  0  0  0  0  0  0  0  0  0
   -1.7940   -0.2820   -1.4971 C   0  0  0  0  0  0  0  0  0  0  0  0
   -2.4728   -0.4387   -0.2410 C   0  0  0  0  0  0  0  0  0  0  0  0
   -3.8056   -0.3357   -0.2662 O   0  0  0  0  0  0  0  0  0  0  0  0
   -4.8447    0.3583    0.1616 C   0  0  0  0  0  0  0  0  0  0  0  0
   -5.6058    1.0439   -0.8504 C   0  0  0  0  0  0  0  0  0  0  0  0
   -6.6676    1.7570   -0.4638 C   0  0  0  0  0  0  0  0  0  0  0  0
   -7.0859    1.8822    0.8401 C   0  0  0  0  0  0  0  0  0  0  0  0
   -8.1542    2.6015    1.2217 F   0  0  0  0  0  0  0  0  0  0  0  0
   -6.3528    1.2254    1.7833 C   0  0  0  0  0  0  0  0  0  0  0  0
   -5.2377    0.4638    1.4658 C   0  0  0  0  0  0  0  0  0  0  0  0
   -4.6382   -0.1464    2.4982 F   0  0  0  0  0  0  0  0  0  0  0  0
   -1.6370   -0.6761    0.8123 C   0  0  0  0  0  0  0  0  0  0  0  0
   -2.0251   -0.8452    1.9904 O   0  0  0  0  0  0  0  0  0  0  0  0
   -0.2863   -0.7506    0.6555 N   0  0  0  0  0  0  0  0  0  0  0  0
    0.5828   -1.0068    1.8121 C   0  0  0  0  0  0  0  0  0  0  0  0
    0.3472   -0.6041   -0.5135 C   0  0  0  0  0  0  0  0  0  0  0  0
    1.6819   -0.6817   -0.6399 N   0  0  0  0  0  0  0  0  0  0  0  0
  1  2  1  0
  2  3  1  0
  3  4  1  6
  3  5  1  0
  5  6  1  0
  6  7  2  0
  6  8  1  0
  8  9  1  0
  9 10  1  0
 10 11  1  0
 11 12  2  0
 12 13  1  0
 13 14  1  0
 14 15  2  0
 17 16  1  1
 17 18  1  0
 18 19  1  0
 19 20  1  0
 20 21  2  0
 21 22  1  0
 22 23  2  0
 17 24  1  0
 24 25  1  0
 25 26  2  0
 26 27  1  0
 27 28  2  0
 28 29  1  0
 29 30  2  0
 30 31  1  0
 31 32  1  0
 32 33  2  0
 33 34  1  0
 34 35  2  0
 35 36  1  0
 35 37  1  0
 37 38  2  0
 38 39  1  0
 30 40  1  0
 40 41  2  0
 40 42  1  0
 42 43  1  0
 42 44  1  0
 44 45  2  0
 15 11  1  0
 23 19  1  0
 45 25  1  0
 44 28  1  0
 38 32  1  0
M  END

