
     RDKit          3D

 44 46  0  0  0  0  0  0  0  0999 V2000
    3.7657    2.1480    0.5065 C   0  0  0  0  0  0  0  0  0  0  0  0
    3.2753    0.7983    0.9714 C   0  0  0  0  0  0  0  0  0  0  0  0
    4.3447    0.0202    1.7004 C   0  0  0  0  0  0  0  0  0  0  0  0
    2.8863   -0.0308   -0.2507 C   0  0  0  0  0  0  0  0  0  0  0  0
    2.4094   -1.3669    0.2802 C   0  0  0  0  0  0  0  0  0  0  0  0
    1.2869   -1.1730    1.1563 N   0  0  0  0  0  0  0  0  0  0  0  0
    0.1086   -0.5641    0.6775 C   0  0  0  0  0  0  0  0  0  0  0  0
    0.0112   -0.1804   -0.5084 O   0  0  0  0  0  0  0  0  0  0  0  0
   -1.0431   -0.3688    1.5877 C   0  0  0  0  0  0  0  0  0  0  0  0
   -2.2045    0.2936    0.8571 C   0  0  0  0  0  0  0  0  0  0  0  0
   -2.6352   -0.5880   -0.3058 C   0  0  0  0  0  0  0  0  0  0  0  0
   -3.7633    0.1063   -0.9677 C   0  0  0  0  0  0  0  0  0  0  0  0
   -3.4982    0.8578   -2.1018 O   0  0  0  0  0  1  0  0  0  0  0  0
   -4.9436    0.0477   -0.5563 O   0  0  0  0  0  0  0  0  0  0  0  0
    3.8413   -1.2382   -3.0220 C   0  0  0  0  0  0  0  0  0  0  0  0
    4.6808   -0.1680   -2.0713 C   0  0  2  0  0  0  0  0  0  0  0  0
    4.1115   -0.8221   -0.6641 C   0  0  0  0  0  0  0  0  0  0  0  0
    4.7665    0.0213    0.3199 N   0  0  0  0  0  0  0  0  0  0  0  0
    5.9506   -0.2595    0.8297 N   0  0  0  0  0  0  0  0  0  0  0  0
    6.2740    0.7225    1.7131 C   0  0  0  0  0  0  0  0  0  0  0  0
    5.2539    1.6044    1.7238 N   0  0  0  0  0  0  0  0  0  0  0  0
    4.3608    1.1451    0.8676 N   0  0  0  0  0  0  0  0  0  0  0  0
    3.6187    0.9858   -2.0922 N   0  0  0  0  0  0  0  0  0  0  0  0
    2.3365    0.8106   -1.6681 C   0  0  0  0  0  0  0  0  0  0  0  0
    1.4468    1.8106   -1.6942 N   0  0  0  0  0  0  0  0  0  0  0  0
    0.1796    1.6480   -1.2796 C   0  0  0  0  0  0  0  0  0  0  0  0
   -0.2342    0.4171   -0.8090 C   0  0  0  0  0  0  0  0  0  0  0  0
   -1.5444    0.2083   -0.3687 C   0  0  0  0  0  0  0  0  0  0  0  0
   -1.8949   -1.0440    0.0896 C   0  0  0  0  0  0  0  0  0  0  0  0
   -3.1763   -1.3249    0.5420 O   0  0  0  0  0  0  0  0  0  0  0  0
   -4.1995   -0.4011    0.5764 C   0  0  0  0  0  0  0  0  0  0  0  0
   -5.3683   -0.6221   -0.1436 C   0  0  0  0  0  0  0  0  0  0  0  0
   -6.4023    0.2898   -0.1216 C   0  0  0  0  0  0  0  0  0  0  0  0
   -6.3114    1.4521    0.6156 C   0  0  0  0  0  0  0  0  0  0  0  0
   -7.3394    2.3474    0.6306 F   0  0  0  0  0  0  0  0  0  0  0  0
   -5.1668    1.6848    1.3303 C   0  0  0  0  0  0  0  0  0  0  0  0
   -4.1376    0.7693    1.3038 C   0  0  0  0  0  0  0  0  0  0  0  0
   -2.9906    0.9821    2.0079 F   0  0  0  0  0  0  0  0  0  0  0  0
   -0.9594   -2.0461    0.1029 C   0  0  0  0  0  0  0  0  0  0  0  0
   -1.2865   -3.1819    0.5212 O   0  0  0  0  0  0  0  0  0  0  0  0
    0.3171   -1.8519   -0.3234 N   0  0  0  0  0  0  0  0  0  0  0  0
    1.2767   -2.9249   -0.2970 C   0  0  0  0  0  0  0  0  0  0  0  0
    0.6776   -0.6234   -0.7779 C   0  0  0  0  0  0  0  0  0  0  0  0
    1.9192   -0.3909   -1.2049 N   0  0  0  0  0  0  0  0  0  0  0  0
  1  2  1  0
  2  3  1  0
  2  4  1  0
  4  5  1  0
  5  6  1  0
  6  7  1  0
  7  8  2  0
  7  9  1  0
  9 10  1  0
 10 11  1  0
 11 12  1  0
 12 13  1  0
 12 14  2  0
 16 15  1  6
 16 17  1  0
 17 18  1  0
 18 19  1  0
 19 20  2  0
 20 21  1  0
 21 22  2  0
 16 23  1  0
 23 24  1  0
 24 25  2  0
 25 26  1  0
 26 27  2  0
 27 28  1  0
 28 29  2  0
 29 30  1  0
 30 31  1  0
 31 32  2  0
 32 33  1  0
 33 34  2  0
 34 35  1  0
 34 36  1  0
 36 37  2  0
 37 38  1  0
 29 39  1  0
 39 40  2  0
 39 41  1  0
 41 42  1  0
 41 43  1  0
 43 44  2  0
 22 18  1  0
 44 24  1  0
 43 27  1  0
 37 31  1  0
M  RAD  1  13   2
M  END

