
     RDKit          3D

 43 45  0  0  0  0  0  0  0  0999 V2000
    3.7633   -1.0384   -0.6106 C   0  0  0  0  0  0  0  0  0  0  0  0
    3.6548    0.4156   -0.2658 C   0  0  0  0  0  0  0  0  0  0  0  0
    4.7328    0.8440    0.6726 C   0  0  0  0  0  0  0  0  0  0  0  0
    2.2766    0.7828    0.1458 C   0  0  0  0  0  0  0  0  0  0  0  0
    1.7630    0.0542    1.3410 C   0  0  0  0  0  0  0  0  0  0  0  0
    0.4177    0.5184    1.6154 N   0  0  0  0  0  0  0  0  0  0  0  0
   -0.6109    0.3751    0.6506 C   0  0  0  0  0  0  0  0  0  0  0  0
   -0.3047   -0.1668   -0.4401 O   0  0  0  0  0  0  0  0  0  0  0  0
   -1.9589    0.8621    0.9769 C   0  0  0  0  0  0  0  0  0  0  0  0
   -2.9075    0.6330   -0.1415 C   0  0  0  0  0  0  0  0  0  0  0  0
   -3.0929   -0.7887   -0.5418 C   0  0  0  0  0  0  0  0  0  0  0  0
   -3.6205   -1.6685    0.5702 C   0  0  0  0  0  0  0  0  0  0  0  0
   -4.1128   -0.8229   -1.6627 C   0  0  0  0  0  0  0  0  0  0  0  0
   -4.8098   -2.0796   -0.0357 C   0  0  0  0  0  0  0  0  0  0  0  0
   -4.9121   -1.4373    1.4893 C   0  0  2  0  0  0  0  0  0  0  0  0
   -6.3004   -0.6060    1.1787 C   0  0  0  0  0  0  0  0  0  0  0  0
   -6.0430    0.2951    0.1117 N   0  0  0  0  0  0  0  0  0  0  0  0
   -6.1706    0.1103   -1.2092 N   0  0  0  0  0  0  0  0  0  0  0  0
   -5.8150    1.2339   -1.8281 C   0  0  0  0  0  0  0  0  0  0  0  0
   -5.4712    2.1032   -0.8919 N   0  0  0  0  0  0  0  0  0  0  0  0
   -5.6205    1.5045    0.2636 N   0  0  0  0  0  0  0  0  0  0  0  0
   -3.9455   -0.2304    1.1612 N   0  0  0  0  0  0  0  0  0  0  0  0
   -2.6478   -0.6618    0.7558 C   0  0  0  0  0  0  0  0  0  0  0  0
   -2.2659   -1.9310    0.6561 N   0  0  0  0  0  0  0  0  0  0  0  0
   -1.0144   -2.2864    0.2640 C   0  0  0  0  0  0  0  0  0  0  0  0
   -0.1187   -1.2882   -0.0380 C   0  0  0  0  0  0  0  0  0  0  0  0
    1.1808   -1.5344   -0.4471 C   0  0  0  0  0  0  0  0  0  0  0  0
    2.0346   -0.5041   -0.7364 C   0  0  0  0  0  0  0  0  0  0  0  0
    3.3450   -0.7077   -1.1498 O   0  0  0  0  0  0  0  0  0  0  0  0
    4.4264   -0.2051   -0.4138 C   0  0  0  0  0  0  0  0  0  0  0  0
    4.2525    0.5142    0.7529 C   0  0  0  0  0  0  0  0  0  0  0  0
    5.3553    0.9685    1.4098 C   0  0  0  0  0  0  0  0  0  0  0  0
    6.6309    0.7416    0.9613 C   0  0  0  0  0  0  0  0  0  0  0  0
    7.7009    1.2107    1.6442 F   0  0  0  0  0  0  0  0  0  0  0  0
    6.7761    0.0202   -0.2069 C   0  0  0  0  0  0  0  0  0  0  0  0
    5.6927   -0.4648   -0.9145 C   0  0  0  0  0  0  0  0  0  0  0  0
    5.8839   -1.1702   -2.0600 F   0  0  0  0  0  0  0  0  0  0  0  0
    1.6027    0.8152   -0.6217 C   0  0  0  0  0  0  0  0  0  0  0  0
    2.3501    1.7902   -0.8762 O   0  0  0  0  0  0  0  0  0  0  0  0
    0.3362    1.0552   -0.2229 N   0  0  0  0  0  0  0  0  0  0  0  0
   -0.1602    2.4179   -0.0884 C   0  0  0  0  0  0  0  0  0  0  0  0
   -0.5110    0.0282    0.0642 C   0  0  0  0  0  0  0  0  0  0  0  0
   -1.7625    0.2983    0.4577 N   0  0  0  0  0  0  0  0  0  0  0  0
  1  2  1  0
  2  3  1  0
  2  4  1  0
  4  5  1  0
  5  6  1  0
  6  7  1  0
  7  8  2  0
  7  9  1  0
  9 10  1  0
 10 11  1  0
 11 12  1  0
 11 13  1  0
 15 14  1  6
 15 16  1  0
 16 17  1  0
 17 18  1  0
 18 19  2  0
 19 20  1  0
 20 21  2  0
 15 22  1  0
 22 23  1  0
 23 24  2  0
 24 25  1  0
 25 26  2  0
 26 27  1  0
 27 28  2  0
 28 29  1  0
 29 30  1  0
 30 31  2  0
 31 32  1  0
 32 33  2  0
 33 34  1  0
 33 35  1  0
 35 36  2  0
 36 37  1  0
 28 38  1  0
 38 39  2  0
 38 40  1  0
 40 41  1  0
 40 42  1  0
 42 43  2  0
 21 17  1  0
 43 23  1  0
 42 26  1  0
 36 30  1  0
M  END

