
     RDKit          3D

 47 49  0  0  0  0  0  0  0  0999 V2000
    5.6154    1.7185    1.2225 C   0  0  0  0  0  0  0  0  0  0  0  0
    4.4293    0.6023    0.7986 C   0  0  2  0  0  0  0  0  0  0  0  0
    4.5648    1.0130   -0.8252 C   0  0  0  0  0  0  0  0  0  0  0  0
    5.9584    0.6888   -1.0663 N   0  0  0  0  0  0  0  0  0  0  0  0
    6.4046   -0.4708   -1.4654 N   0  0  0  0  0  0  0  0  0  0  0  0
    7.7549   -0.4444   -1.5951 C   0  0  0  0  0  0  0  0  0  0  0  0
    8.1172    0.8018   -1.2521 N   0  0  0  0  0  0  0  0  0  0  0  0
    7.0302    1.4631   -0.9396 N   0  0  0  0  0  0  0  0  0  0  0  0
    3.2318    1.6113    1.0320 N   0  0  0  0  0  0  0  0  0  0  0  0
    1.9415    1.1854    0.8150 C   0  0  0  0  0  0  0  0  0  0  0  0
    0.9485    2.0650    1.0219 N   0  0  0  0  0  0  0  0  0  0  0  0
   -0.3432    1.6907    0.8208 C   0  0  0  0  0  0  0  0  0  0  0  0
   -0.6470    0.4164    0.4062 C   0  0  0  0  0  0  0  0  0  0  0  0
   -1.9536    0.0341    0.2016 C   0  0  0  0  0  0  0  0  0  0  0  0
   -2.2634   -1.2416   -0.2139 C   0  0  0  0  0  0  0  0  0  0  0  0
   -3.5851   -1.5836   -0.4070 O   0  0  0  0  0  0  0  0  0  0  0  0
   -4.6198   -0.6917   -0.1989 C   0  0  0  0  0  0  0  0  0  0  0  0
   -4.3340    0.5873    0.2160 C   0  0  0  0  0  0  0  0  0  0  0  0
   -5.3868    1.4777    0.4224 C   0  0  0  0  0  0  0  0  0  0  0  0
   -6.6746    1.0748    0.2126 C   0  0  0  0  0  0  0  0  0  0  0  0
   -7.6594    1.9983    0.4337 F   0  0  0  0  0  0  0  0  0  0  0  0
   -6.9589   -0.2146   -0.2055 C   0  0  0  0  0  0  0  0  0  0  0  0
   -5.9186   -1.0972   -0.4102 C   0  0  0  0  0  0  0  0  0  0  0  0
   -6.1195   -2.3729   -0.8186 F   0  0  0  0  0  0  0  0  0  0  0  0
   -1.2232   -2.1165   -0.4162 C   0  0  0  0  0  0  0  0  0  0  0  0
   -1.5127   -3.2807   -0.7958 O   0  0  0  0  0  0  0  0  0  0  0  0
    0.0594   -1.7182   -0.2083 N   0  0  0  0  0  0  0  0  0  0  0  0
    1.1419   -2.6648   -0.4300 C   0  0  0  0  0  0  0  0  0  0  0  0
    0.3676   -0.4728    0.1977 C   0  0  0  0  0  0  0  0  0  0  0  0
    1.6345   -0.0587    0.4095 N   0  0  0  0  0  0  0  0  0  0  0  0
   -4.8548   -2.1070    0.3863 N   0  0  0  0  0  0  0  0  0  0  0  0
   -4.3425   -1.0149    1.1555 C   0  0  0  0  0  0  0  0  0  0  0  0
   -5.1587   -0.1234    1.5876 N   0  0  0  0  0  4  0  0  0  0  0  0
   -2.9670   -0.8694    1.4653 N   0  0  0  0  0  0  0  0  0  0  0  0
   -2.5496    0.2731    2.2512 C   0  0  0  0  0  0  0  0  0  0  0  0
   -1.0390    0.1613    2.4203 C   0  0  0  0  0  0  0  0  0  0  0  0
   -0.4258    0.1774    1.0506 C   0  0  0  0  0  0  0  0  0  0  0  0
   -0.7582    1.4565    0.3141 C   0  0  0  0  0  0  0  0  0  0  0  0
   -0.1649    1.4615   -0.9991 N   0  0  0  0  0  0  0  0  0  0  0  0
    1.2733    1.3651   -1.1964 C   0  0  0  0  0  0  0  0  0  0  0  0
    1.9133    1.2800   -0.1212 O   0  0  0  0  0  0  0  0  0  0  0  0
    1.8504    1.3720   -2.5330 C   0  0  0  0  0  0  0  0  0  0  0  0
    3.2547    1.0155   -2.6695 C   0  0  0  0  0  0  0  0  0  0  0  0
    3.6017   -0.3668   -2.3159 C   0  0  0  0  0  0  0  0  0  0  0  0
    3.3037   -0.7143   -0.9110 C   0  0  0  0  0  0  0  0  0  0  0  0
    3.6955   -2.1565   -0.6441 C   0  0  0  0  0  0  0  0  0  0  0  0
    3.3678   -2.4116    0.7592 N   0  0  0  0  0  4  0  0  0  0  0  0
  2  1  1  1
  2  3  1  0
  3  4  1  0
  4  5  1  0
  5  6  2  0
  6  7  1  0
  7  8  2  0
  2  9  1  0
  9 10  1  0
 10 11  2  0
 11 12  1  0
 12 13  2  0
 13 14  1  0
 14 15  2  0
 15 16  1  0
 16 17  1  0
 17 18  2  0
 18 19  1  0
 19 20  2  0
 20 21  1  0
 20 22  1  0
 22 23  2  0
 23 24  1  0
 15 25  1  0
 25 26  2  0
 25 27  1  0
 27 28  1  0
 27 29  1  0
 29 30  2  0
 31 32  1  0
 32 33  2  0
 32 34  1  0
 34 35  1  0
 35 36  1  0
 36 37  1  0
 37 38  1  0
 38 39  1  0
 39 40  1  0
 40 41  2  0
 40 42  1  0
 42 43  1  0
 43 44  1  0
 44 45  1  0
 45 46  1  0
 46 47  1  0
  8  4  1  0
 30 10  1  0
 29 13  1  0
 23 17  1  0
M  CHG  2  33   1  47   1
M  END

