
     RDKit          3D

 46 49  0  0  0  0  0  0  0  0999 V2000
    4.9375    0.0661    1.7726 C   0  0  0  0  0  0  0  0  0  0  0  0
    4.9584   -1.5504    1.4401 C   0  0  2  0  0  0  0  0  0  0  0  0
    4.4569   -1.3613   -0.1119 C   0  0  0  0  0  0  0  0  0  0  0  0
    5.4707   -0.5477   -0.7244 N   0  0  0  0  0  0  0  0  0  0  0  0
    6.5677   -0.9460   -1.3451 N   0  0  0  0  0  0  0  0  0  0  0  0
    7.1929    0.1671   -1.7424 C   0  0  0  0  0  0  0  0  0  0  0  0
    6.4847    1.2600   -1.3688 N   0  0  0  0  0  0  0  0  0  0  0  0
    5.4300    0.7662   -0.7435 N   0  0  0  0  0  0  0  0  0  0  0  0
    3.5450   -1.8230    2.0288 N   0  0  0  0  0  0  0  0  0  0  0  0
    2.4583   -1.0657    1.5452 C   0  0  0  0  0  0  0  0  0  0  0  0
    2.6930   -0.1401    0.6023 N   0  0  0  0  0  0  0  0  0  0  0  0
    1.6987    0.6262    0.0890 C   0  0  0  0  0  0  0  0  0  0  0  0
    0.4101    0.4462    0.5520 C   0  0  0  0  0  0  0  0  0  0  0  0
   -0.6677    1.1748    0.0937 C   0  0  0  0  0  0  0  0  0  0  0  0
   -1.9550    0.9477    0.6017 C   0  0  0  0  0  0  0  0  0  0  0  0
   -3.0518    1.6511    0.1721 O   0  0  0  0  0  0  0  0  0  0  0  0
   -4.1637    1.0730   -0.4197 C   0  0  0  0  0  0  0  0  0  0  0  0
   -4.1837   -0.2884   -0.5953 C   0  0  0  0  0  0  0  0  0  0  0  0
   -5.2283   -0.9496   -1.1656 C   0  0  0  0  0  0  0  0  0  0  0  0
   -6.3230   -0.2316   -1.5911 C   0  0  0  0  0  0  0  0  0  0  0  0
   -7.3641   -0.8976   -2.1604 F   0  0  0  0  0  0  0  0  0  0  0  0
   -6.3468    1.1317   -1.4358 C   0  0  0  0  0  0  0  0  0  0  0  0
   -5.2605    1.7816   -0.8473 C   0  0  0  0  0  0  0  0  0  0  0  0
   -5.2412    3.1220   -0.6747 F   0  0  0  0  0  0  0  0  0  0  0  0
   -2.1455   -0.0164    1.5717 C   0  0  0  0  0  0  0  0  0  0  0  0
   -3.3064   -0.2103    2.0195 O   0  0  0  0  0  0  0  0  0  0  0  0
   -1.0813   -0.7223    2.0112 N   0  0  0  0  0  0  0  0  0  0  0  0
   -1.3415   -1.7235    3.0325 C   0  0  0  0  0  0  0  0  0  0  0  0
    0.1644   -0.5046    1.5216 C   0  0  0  0  0  0  0  0  0  0  0  0
    1.1921   -1.2351    1.9929 N   0  0  0  0  0  0  0  0  0  0  0  0
    5.8308   -0.8173   -2.0342 N   0  0  0  0  0  0  0  0  0  0  0  0
    5.1069   -0.4007   -0.8952 C   0  0  0  0  0  0  0  0  0  0  0  0
    5.7248   -0.1852    0.1671 O   0  0  0  0  0  0  0  0  0  0  0  0
    3.6649   -0.2285   -0.9689 C   0  0  0  0  0  0  0  0  0  0  0  0
    3.0185    0.2139    0.2991 C   0  0  0  0  0  0  0  0  0  0  0  0
    1.5621    0.3551    0.1082 C   0  0  0  0  0  0  0  0  0  0  0  0
    1.0577    0.1098   -1.0065 O   0  0  0  0  0  0  0  0  0  0  0  0
    0.7530    0.7672    1.1907 N   0  0  0  0  0  0  0  0  0  0  0  0
   -0.6995    0.9255    1.0627 C   0  0  0  0  0  0  0  0  0  0  0  0
   -1.3039   -0.4011    0.6660 C   0  0  0  0  0  0  0  0  0  0  0  0
   -2.7636   -0.2226    0.5422 C   0  0  0  0  0  0  0  0  0  0  0  0
   -3.2851    0.1419   -0.6668 C   0  0  0  0  0  0  0  0  0  0  0  0
   -4.6599    0.3075   -0.7735 C   0  0  0  0  0  0  0  0  0  0  0  0
   -5.4885    0.1105    0.3116 C   0  0  0  0  0  0  0  0  0  0  0  0
   -4.9466   -0.2544    1.5145 C   0  0  0  0  0  0  0  0  0  0  0  0
   -3.5717   -0.4219    1.6283 C   0  0  0  0  0  0  0  0  0  0  0  0
  2  1  1  1
  2  3  1  0
  3  4  1  0
  4  5  1  0
  5  6  2  0
  6  7  1  0
  7  8  2  0
  2  9  1  0
  9 10  1  0
 10 11  2  0
 11 12  1  0
 12 13  2  0
 13 14  1  0
 14 15  2  0
 15 16  1  0
 16 17  1  0
 17 18  2  0
 18 19  1  0
 19 20  2  0
 20 21  1  0
 20 22  1  0
 22 23  2  0
 23 24  1  0
 15 25  1  0
 25 26  2  0
 25 27  1  0
 27 28  1  0
 27 29  1  0
 29 30  2  0
 31 32  1  0
 32 33  2  0
 32 34  1  0
 34 35  1  0
 35 36  1  0
 36 37  2  0
 36 38  1  0
 38 39  1  0
 39 40  1  0
 40 41  1  0
 41 42  2  0
 42 43  1  0
 43 44  2  0
 44 45  1  0
 45 46  2  0
  8  4  1  0
 30 10  1  0
 46 41  1  0
 29 13  1  0
 23 17  1  0
M  END

