
     RDKit          3D

 45 47  0  0  0  0  0  0  0  0999 V2000
    4.9638    1.1066    1.0459 C   0  0  0  0  0  0  0  0  0  0  0  0
    4.8481   -0.3560    1.7647 C   0  0  2  0  0  0  0  0  0  0  0  0
    4.3174   -1.1016    0.4179 C   0  0  0  0  0  0  0  0  0  0  0  0
    5.3406   -0.9353   -0.5724 N   0  0  0  0  0  0  0  0  0  0  0  0
    6.3323   -1.7685   -0.7569 N   0  0  0  0  0  0  0  0  0  0  0  0
    7.0932   -1.3039   -1.7590 C   0  0  0  0  0  0  0  0  0  0  0  0
    6.5078   -0.1600   -2.1584 N   0  0  0  0  0  0  0  0  0  0  0  0
    5.4454    0.0429   -1.4230 N   0  0  0  0  0  0  0  0  0  0  0  0
    3.4317   -0.1591    2.3533 N   0  0  0  0  0  0  0  0  0  0  0  0
    2.3248    0.1393    1.5975 C   0  0  0  0  0  0  0  0  0  0  0  0
    2.4934    0.2698    0.2521 N   0  0  0  0  0  0  0  0  0  0  0  0
    1.4872    0.5580   -0.5756 C   0  0  0  0  0  0  0  0  0  0  0  0
    0.2287    0.7264   -0.0173 C   0  0  0  0  0  0  0  0  0  0  0  0
   -0.8601    1.0278   -0.8266 C   0  0  0  0  0  0  0  0  0  0  0  0
   -2.0738    1.1800   -0.2025 C   0  0  0  0  0  0  0  0  0  0  0  0
   -3.2005    1.4843   -0.9770 O   0  0  0  0  0  0  0  0  0  0  0  0
   -4.2358    0.5451   -0.9103 C   0  0  0  0  0  0  0  0  0  0  0  0
   -5.4454    1.0012   -0.4466 C   0  0  0  0  0  0  0  0  0  0  0  0
   -6.4998    0.1048   -0.3638 C   0  0  0  0  0  0  0  0  0  0  0  0
   -6.3753   -1.2060   -0.7255 C   0  0  0  0  0  0  0  0  0  0  0  0
   -7.4042   -2.0867   -0.6462 F   0  0  0  0  0  0  0  0  0  0  0  0
   -5.1443   -1.6390   -1.1897 C   0  0  0  0  0  0  0  0  0  0  0  0
   -4.0857   -0.7572   -1.2773 C   0  0  0  0  0  0  0  0  0  0  0  0
   -2.8616   -1.1606   -1.7321 F   0  0  0  0  0  0  0  0  0  0  0  0
   -2.1793    1.0355    1.1609 C   0  0  0  0  0  0  0  0  0  0  0  0
   -3.2858    1.1753    1.7214 O   0  0  0  0  0  0  0  0  0  0  0  0
   -1.1113    0.7465    1.8996 N   0  0  0  0  0  0  0  0  0  0  0  0
   -1.2587    0.5994    3.3494 C   0  0  0  0  0  0  0  0  0  0  0  0
    0.0853    0.5914    1.3267 C   0  0  0  0  0  0  0  0  0  0  0  0
    1.1218    0.2996    2.1375 N   0  0  0  0  0  0  0  0  0  0  0  0
   -2.9943   -2.3063   -1.6935 N   0  0  0  0  0  4  0  0  0  0  0  0
   -2.4738   -1.3044   -0.7993 C   0  0  0  0  0  0  0  0  0  0  0  0
   -2.4234   -1.8135    0.5896 C   0  0  0  0  0  0  0  0  0  0  0  0
   -1.8840   -0.7954    1.5592 C   0  0  0  0  0  0  0  0  0  0  0  0
   -2.7523    0.4376    1.4796 C   0  0  0  0  0  0  0  0  0  0  0  0
   -2.6432    1.1035    0.1592 C   0  0  0  0  0  0  0  0  0  0  0  0
   -1.4066    1.6921   -0.1603 N   0  0  0  0  0  0  0  0  0  0  0  0
   -0.1059    1.2322   -0.2544 C   0  0  0  0  0  0  0  0  0  0  0  0
    0.1763    0.0400   -0.0214 O   0  0  0  0  0  0  0  0  0  0  0  0
    0.9940    2.2024   -0.6491 C   0  0  0  0  0  0  0  0  0  0  0  0
    2.3058    1.4600   -0.6788 C   0  0  0  0  0  0  0  0  0  0  0  0
    2.5772    0.8956    0.6973 C   0  0  0  0  0  0  0  0  0  0  0  0
    3.8610    0.1365    0.7780 C   0  0  0  0  0  0  0  0  0  0  0  0
    3.9353   -1.0401   -0.1449 C   0  0  0  0  0  0  0  0  0  0  0  0
    2.8339   -1.9401    0.2266 N   0  0  0  0  0  4  0  0  0  0  0  0
  2  1  1  6
  2  3  1  0
  3  4  1  0
  4  5  1  0
  5  6  2  0
  6  7  1  0
  7  8  2  0
  2  9  1  0
  9 10  1  0
 10 11  2  0
 11 12  1  0
 12 13  2  0
 13 14  1  0
 14 15  2  0
 15 16  1  0
 16 17  1  0
 17 18  2  0
 18 19  1  0
 19 20  2  0
 20 21  1  0
 20 22  1  0
 22 23  2  0
 23 24  1  0
 15 25  1  0
 25 26  2  0
 25 27  1  0
 27 28  1  0
 27 29  1  0
 29 30  2  0
 31 32  1  0
 32 33  1  0
 33 34  1  0
 34 35  1  0
 35 36  1  0
 36 37  1  0
 37 38  1  0
 38 39  2  0
 38 40  1  0
 40 41  1  0
 41 42  1  0
 42 43  1  0
 43 44  1  0
 44 45  1  0
  8  4  1  0
 30 10  1  0
 29 13  1  0
 23 17  1  0
M  CHG  2  31   1  45   1
M  END

