
     RDKit          3D

 39 41  0  0  0  0  0  0  0  0999 V2000
   -2.8475    1.2149   -0.6367 C   0  0  0  0  0  0  0  0  0  0  0  0
   -2.5800    0.4293    0.6118 C   0  0  0  0  0  0  0  0  0  0  0  0
   -1.3241   -0.5164    0.1376 C   0  0  2  0  0  0  0  0  0  0  0  0
   -1.2188   -1.2519    1.6138 C   0  0  0  0  0  0  0  0  0  0  0  0
   -0.1949    0.6008    0.5193 C   0  0  0  0  0  0  0  0  0  0  0  0
    1.1071   -0.0139    0.1778 C   0  0  0  0  0  0  0  0  0  0  0  0
    1.1480   -1.1476   -0.2908 O   0  0  0  0  0  0  0  0  0  0  0  0
    2.3386    0.6677    0.3738 N   0  0  0  0  0  0  0  0  0  0  0  0
    3.5716    0.0171    0.0222 C   0  0  0  0  0  0  0  0  0  0  0  0
    3.4128   -0.3694   -2.4998 C   0  0  0  0  0  0  0  0  0  0  0  0
    4.2151    0.4773   -1.3197 C   0  0  2  0  0  0  0  0  0  0  0  0
    5.5221   -0.5450   -1.3747 C   0  0  0  0  0  0  0  0  0  0  0  0
    6.4416   -0.0351   -0.4014 N   0  0  0  0  0  0  0  0  0  0  0  0
    7.4208    0.8330   -0.4517 N   0  0  0  0  0  0  0  0  0  0  0  0
    7.9890    0.9590    0.7828 C   0  0  0  0  0  0  0  0  0  0  0  0
    7.3076    0.1263    1.5826 N   0  0  0  0  0  0  0  0  0  0  0  0
    6.3897   -0.4553    0.8532 N   0  0  0  0  0  0  0  0  0  0  0  0
    3.5097   -0.3225   -0.1500 N   0  0  0  0  0  0  0  0  0  0  0  0
    2.1036   -0.1421   -0.1980 C   0  0  0  0  0  0  0  0  0  0  0  0
    1.4485    0.5889   -1.0878 N   0  0  0  0  0  0  0  0  0  0  0  0
    0.1117    0.7227   -1.0829 C   0  0  0  0  0  0  0  0  0  0  0  0
   -0.6034    0.0642   -0.1012 C   0  0  0  0  0  0  0  0  0  0  0  0
   -1.9769    0.1349   -0.0065 C   0  0  0  0  0  0  0  0  0  0  0  0
   -2.6144   -0.5522    1.0027 C   0  0  0  0  0  0  0  0  0  0  0  0
   -3.9750   -0.4932    1.1112 O   0  0  0  0  0  0  0  0  0  0  0  0
   -4.7104    0.2452    0.2225 C   0  0  0  0  0  0  0  0  0  0  0  0
   -5.5033    1.2867    0.6452 C   0  0  0  0  0  0  0  0  0  0  0  0
   -6.2348    2.0166   -0.2651 C   0  0  0  0  0  0  0  0  0  0  0  0
   -6.1964    1.7300   -1.6143 C   0  0  0  0  0  0  0  0  0  0  0  0
   -6.9208    2.4504   -2.5289 F   0  0  0  0  0  0  0  0  0  0  0  0
   -5.3894    0.6792   -1.9931 C   0  0  0  0  0  0  0  0  0  0  0  0
   -4.6429   -0.0745   -1.1144 C   0  0  0  0  0  0  0  0  0  0  0  0
   -3.8630   -1.1061   -1.5700 F   0  0  0  0  0  0  0  0  0  0  0  0
   -1.8888   -1.3015    1.9074 C   0  0  0  0  0  0  0  0  0  0  0  0
   -2.4908   -1.9206    2.8206 O   0  0  0  0  0  0  0  0  0  0  0  0
   -0.5667   -1.3512    1.7917 N   0  0  0  0  0  0  0  0  0  0  0  0
    0.1931   -2.1485    2.7560 C   0  0  0  0  0  0  0  0  0  0  0  0
    0.0908   -0.6924    0.8175 C   0  0  0  0  0  0  0  0  0  0  0  0
    1.4209   -0.8045    0.7845 N   0  0  0  0  0  0  0  0  0  0  0  0
  1  2  1  0
  2  3  1  0
  3  4  1  1
  3  5  1  0
  5  6  1  0
  6  7  2  0
  6  8  1  0
  8  9  1  0
 11 10  1  6
 11 12  1  0
 12 13  1  0
 13 14  1  0
 14 15  2  0
 15 16  1  0
 16 17  2  0
 11 18  1  0
 18 19  1  0
 19 20  2  0
 20 21  1  0
 21 22  2  0
 22 23  1  0
 23 24  2  0
 24 25  1  0
 25 26  1  0
 26 27  2  0
 27 28  1  0
 28 29  2  0
 29 30  1  0
 29 31  1  0
 31 32  2  0
 32 33  1  0
 24 34  1  0
 34 35  2  0
 34 36  1  0
 36 37  1  0
 36 38  1  0
 38 39  2  0
 17 13  1  0
 39 19  1  0
 38 22  1  0
 32 26  1  0
M  END

