
     RDKit          3D

 36 38  0  0  0  0  0  0  0  0999 V2000
   -1.9208    0.6488    0.5075 C   0  0  0  0  0  0  0  0  0  0  0  0
   -1.5519   -0.5522   -0.3564 C   0  0  0  0  0  0  0  0  0  0  0  0
   -0.2077   -0.9539    0.0736 N   0  0  0  0  0  0  0  0  0  0  0  0
    0.8419    0.0119   -0.0564 C   0  0  0  0  0  0  0  0  0  0  0  0
    2.2331   -0.3132    0.3555 C   0  0  0  0  0  0  0  0  0  0  0  0
    0.6054    1.1587   -0.5237 O   0  0  0  0  0  0  0  0  0  0  0  0
   -4.4487    0.5717   -0.4582 C   0  0  0  0  0  0  0  0  0  0  0  0
   -4.8424   -0.9145    0.1858 C   0  0  2  0  0  0  0  0  0  0  0  0
   -5.6621   -0.2305    1.4766 C   0  0  0  0  0  0  0  0  0  0  0  0
   -6.7015    0.5366    0.8683 N   0  0  0  0  0  0  0  0  0  0  0  0
   -6.6394    1.8067    0.4908 N   0  0  0  0  0  0  0  0  0  0  0  0
   -7.8367    2.1394   -0.0366 C   0  0  0  0  0  0  0  0  0  0  0  0
   -8.5936    1.0236    0.0471 N   0  0  0  0  0  0  0  0  0  0  0  0
   -7.9083    0.0415    0.5979 N   0  0  0  0  0  0  0  0  0  0  0  0
   -3.4967   -0.9918    1.0193 N   0  0  0  0  0  0  0  0  0  0  0  0
   -2.3211   -0.9522    0.2404 C   0  0  0  0  0  0  0  0  0  0  0  0
   -2.2157   -0.8603   -1.0736 N   0  0  0  0  0  0  0  0  0  0  0  0
   -1.0301   -0.8293   -1.7337 C   0  0  0  0  0  0  0  0  0  0  0  0
    0.1328   -0.8978   -0.9885 C   0  0  0  0  0  0  0  0  0  0  0  0
    1.3839   -0.8743   -1.5560 C   0  0  0  0  0  0  0  0  0  0  0  0
    2.4865   -0.9477   -0.7294 C   0  0  0  0  0  0  0  0  0  0  0  0
    3.7945   -0.9292   -1.2373 O   0  0  0  0  0  0  0  0  0  0  0  0
    4.6613    0.0913   -0.8400 C   0  0  0  0  0  0  0  0  0  0  0  0
    4.3064    1.0866    0.0257 C   0  0  0  0  0  0  0  0  0  0  0  0
    5.2319    2.0763    0.3771 C   0  0  0  0  0  0  0  0  0  0  0  0
    6.5024    2.0897   -0.1195 C   0  0  0  0  0  0  0  0  0  0  0  0
    7.3833    3.0745    0.2461 F   0  0  0  0  0  0  0  0  0  0  0  0
    6.8562    1.0810   -0.9945 C   0  0  0  0  0  0  0  0  0  0  0  0
    5.9443    0.0904   -1.3520 C   0  0  0  0  0  0  0  0  0  0  0  0
    6.3059   -0.8891   -2.2089 F   0  0  0  0  0  0  0  0  0  0  0  0
    2.3615   -1.0428    0.6333 C   0  0  0  0  0  0  0  0  0  0  0  0
    3.3563   -1.1117    1.4159 O   0  0  0  0  0  0  0  0  0  0  0  0
    1.1464   -1.0639    1.1598 N   0  0  0  0  0  0  0  0  0  0  0  0
    0.9869   -1.1643    2.6035 C   0  0  0  0  0  0  0  0  0  0  0  0
    0.0342   -0.9930    0.3714 C   0  0  0  0  0  0  0  0  0  0  0  0
   -1.1783   -1.0167    0.9329 N   0  0  0  0  0  0  0  0  0  0  0  0
  1  2  1  0
  2  3  1  0
  3  4  1  0
  4  5  1  0
  4  6  2  0
  8  7  1  6
  8  9  1  0
  9 10  1  0
 10 11  1  0
 11 12  2  0
 12 13  1  0
 13 14  2  0
  8 15  1  0
 15 16  1  0
 16 17  2  0
 17 18  1  0
 18 19  2  0
 19 20  1  0
 20 21  2  0
 21 22  1  0
 22 23  1  0
 23 24  2  0
 24 25  1  0
 25 26  2  0
 26 27  1  0
 26 28  1  0
 28 29  2  0
 29 30  1  0
 21 31  1  0
 31 32  2  0
 31 33  1  0
 33 34  1  0
 33 35  1  0
 35 36  2  0
 14 10  1  0
 36 16  1  0
 35 19  1  0
 29 23  1  0
M  END

