
     RDKit          3D

 41 43  0  0  0  0  0  0  0  0999 V2000
   -3.5803   -0.9001   -0.0609 C   0  0  0  0  0  0  0  0  0  0  0  0
   -3.3363    0.3849   -0.8230 C   0  0  0  0  0  0  0  0  0  0  0  0
   -3.5216    1.5994    0.0473 C   0  0  0  0  0  0  0  0  0  0  0  0
   -1.9745    0.3470   -1.4778 C   0  0  0  0  0  0  0  0  0  0  0  0
   -0.9509    0.1886   -0.3885 C   0  0  0  0  0  0  0  0  0  0  0  0
    0.3900    0.1437   -0.9419 N   0  0  0  0  0  0  0  0  0  0  0  0
    1.4698   -0.0039   -0.0294 C   0  0  0  0  0  0  0  0  0  0  0  0
    1.2455   -0.0899    1.2015 O   0  0  0  0  0  0  0  0  0  0  0  0
    2.8881   -0.0616   -0.4905 C   0  0  0  0  0  0  0  0  0  0  0  0
    3.8289   -0.2191    0.6576 C   0  0  0  0  0  0  0  0  0  0  0  0
    3.5413   -1.3891    1.3338 O   0  0  0  0  0  0  0  0  0  0  0  0
   -5.5857   -1.1599    1.6618 C   0  0  0  0  0  0  0  0  0  0  0  0
   -4.2891   -0.1241    1.5842 C   0  0  2  0  0  0  0  0  0  0  0  0
   -4.7009    0.4446    0.0808 C   0  0  0  0  0  0  0  0  0  0  0  0
   -5.9957    1.0194    0.2213 N   0  0  0  0  0  0  0  0  0  0  0  0
   -7.0776    0.2874    0.0375 N   0  0  0  0  0  0  0  0  0  0  0  0
   -8.1643    1.0499    0.2251 C   0  0  0  0  0  0  0  0  0  0  0  0
   -7.6705    2.2749    0.5302 N   0  0  0  0  0  0  0  0  0  0  0  0
   -6.3564    2.2307    0.5216 N   0  0  0  0  0  0  0  0  0  0  0  0
   -3.3395   -1.2467    1.0586 N   0  0  0  0  0  0  0  0  0  0  0  0
   -2.0051   -0.9389    0.7899 C   0  0  0  0  0  0  0  0  0  0  0  0
   -1.5481    0.3122    0.9834 N   0  0  0  0  0  0  0  0  0  0  0  0
   -0.2622    0.6378    0.7316 C   0  0  0  0  0  0  0  0  0  0  0  0
    0.6464   -0.2943    0.2640 C   0  0  0  0  0  0  0  0  0  0  0  0
    1.9675   -0.0192   -0.0094 C   0  0  0  0  0  0  0  0  0  0  0  0
    2.8180   -1.0098   -0.4765 C   0  0  0  0  0  0  0  0  0  0  0  0
    4.1382   -0.8077   -0.7679 O   0  0  0  0  0  0  0  0  0  0  0  0
    4.7327    0.4387   -0.6111 C   0  0  0  0  0  0  0  0  0  0  0  0
    5.8015    0.6515    0.2346 C   0  0  0  0  0  0  0  0  0  0  0  0
    6.3635    1.9050    0.3620 C   0  0  0  0  0  0  0  0  0  0  0  0
    5.9028    3.0031   -0.3331 C   0  0  0  0  0  0  0  0  0  0  0  0
    6.4834    4.2192   -0.1795 F   0  0  0  0  0  0  0  0  0  0  0  0
    4.8336    2.7858   -1.1778 C   0  0  0  0  0  0  0  0  0  0  0  0
    4.2677    1.5337   -1.3089 C   0  0  0  0  0  0  0  0  0  0  0  0
    3.2193    1.3389   -2.1422 F   0  0  0  0  0  0  0  0  0  0  0  0
    2.2947   -2.2731   -0.6559 C   0  0  0  0  0  0  0  0  0  0  0  0
    3.0446   -3.2035   -1.0820 O   0  0  0  0  0  0  0  0  0  0  0  0
    1.0010   -2.5126   -0.3807 N   0  0  0  0  0  0  0  0  0  0  0  0
    0.4609   -3.8446   -0.5729 C   0  0  0  0  0  0  0  0  0  0  0  0
    0.1551   -1.5697    0.0733 C   0  0  0  0  0  0  0  0  0  0  0  0
   -1.1361   -1.8481    0.3382 N   0  0  0  0  0  0  0  0  0  0  0  0
  1  2  1  0
  2  3  1  0
  2  4  1  0
  4  5  1  0
  5  6  1  0
  6  7  1  0
  7  8  2  0
  7  9  1  0
  9 10  1  0
 10 11  1  0
 13 12  1  6
 13 14  1  0
 14 15  1  0
 15 16  1  0
 16 17  2  0
 17 18  1  0
 18 19  2  0
 13 20  1  0
 20 21  1  0
 21 22  2  0
 22 23  1  0
 23 24  2  0
 24 25  1  0
 25 26  2  0
 26 27  1  0
 27 28  1  0
 28 29  2  0
 29 30  1  0
 30 31  2  0
 31 32  1  0
 31 33  1  0
 33 34  2  0
 34 35  1  0
 26 36  1  0
 36 37  2  0
 36 38  1  0
 38 39  1  0
 38 40  1  0
 40 41  2  0
 19 15  1  0
 41 21  1  0
 40 24  1  0
 34 28  1  0
M  END

