
     RDKit          3D

 44 46  0  0  0  0  0  0  0  0999 V2000
    4.7239    0.7631    2.9658 C   0  0  0  0  0  0  0  0  0  0  0  0
    5.3336    0.3024    1.4946 C   0  0  2  0  0  0  0  0  0  0  0  0
    4.6000    1.5237    0.6629 C   0  0  0  0  0  0  0  0  0  0  0  0
    5.0693    1.2231   -0.6804 N   0  0  0  0  0  0  0  0  0  0  0  0
    6.1831    1.7159   -1.1808 N   0  0  0  0  0  0  0  0  0  0  0  0
    6.3510    1.2613   -2.4348 C   0  0  0  0  0  0  0  0  0  0  0  0
    5.3118    0.4697   -2.7073 N   0  0  0  0  0  0  0  0  0  0  0  0
    4.5486    0.4685   -1.6146 N   0  0  0  0  0  0  0  0  0  0  0  0
    4.2162   -0.7497    1.1790 N   0  0  0  0  0  0  0  0  0  0  0  0
    2.8824   -0.3255    1.1683 C   0  0  0  0  0  0  0  0  0  0  0  0
    2.4713    0.9325    1.4106 N   0  0  0  0  0  0  0  0  0  0  0  0
    1.1664    1.2645    1.3820 C   0  0  0  0  0  0  0  0  0  0  0  0
    0.1958    0.3063    1.0982 C   0  0  0  0  0  0  0  0  0  0  0  0
   -1.1294    0.5808    1.0550 C   0  0  0  0  0  0  0  0  0  0  0  0
   -2.1199   -0.4327    0.7574 C   0  0  0  0  0  0  0  0  0  0  0  0
   -3.3893   -0.0288    0.7496 O   0  0  0  0  0  0  0  0  0  0  0  0
   -4.3888    0.1068   -0.1218 C   0  0  0  0  0  0  0  0  0  0  0  0
   -4.7344    1.4973   -0.2904 C   0  0  0  0  0  0  0  0  0  0  0  0
   -5.7222    1.8610   -1.1263 C   0  0  0  0  0  0  0  0  0  0  0  0
   -6.4323    0.9387   -1.8434 C   0  0  0  0  0  0  0  0  0  0  0  0
   -7.4321    1.3306   -2.6881 F   0  0  0  0  0  0  0  0  0  0  0  0
   -6.1245   -0.3737   -1.6996 C   0  0  0  0  0  0  0  0  0  0  0  0
   -5.1001   -0.7938   -0.8359 C   0  0  0  0  0  0  0  0  0  0  0  0
   -4.8690   -2.1238   -0.7124 F   0  0  0  0  0  0  0  0  0  0  0  0
   -1.6369   -1.6785    0.5249 C   0  0  0  0  0  0  0  0  0  0  0  0
   -2.4078   -2.6585    0.2574 O   0  0  0  0  0  0  0  0  0  0  0  0
   -0.3006   -1.9059    0.5785 N   0  0  0  0  0  0  0  0  0  0  0  0
    0.1613   -3.2531    0.3211 C   0  0  0  0  0  0  0  0  0  0  0  0
    0.6263   -0.9821    0.8508 C   0  0  0  0  0  0  0  0  0  0  0  0
    1.9464   -1.2401    0.8967 N   0  0  0  0  0  0  0  0  0  0  0  0
   -4.3539    1.1486    1.3904 N   0  0  0  0  0  0  0  0  0  0  0  0
   -3.7723    0.1127    0.5788 C   0  0  0  0  0  0  0  0  0  0  0  0
   -3.8426   -1.1316    0.9583 N   0  0  0  0  0  4  0  0  0  0  0  0
   -3.1137    0.3904   -0.6383 N   0  0  0  0  0  0  0  0  0  0  0  0
   -2.5444   -0.7118   -1.4147 C   0  0  0  0  0  0  0  0  0  0  0  0
   -1.4982   -1.4495   -0.6019 C   0  0  0  0  0  0  0  0  0  0  0  0
   -0.3748   -0.5294   -0.2018 C   0  0  0  0  0  0  0  0  0  0  0  0
    0.3307    0.0701   -1.4117 C   0  0  0  0  0  0  0  0  0  0  0  0
    1.3766    0.9247   -0.8994 N   0  0  0  0  0  0  0  0  0  0  0  0
    2.4277    0.4487   -0.0845 C   0  0  0  0  0  0  0  0  0  0  0  0
    2.4150   -0.7987    0.1873 O   0  0  0  0  0  0  0  0  0  0  0  0
    3.4942    1.3490    0.4314 C   0  0  0  0  0  0  0  0  0  0  0  0
    4.4567    0.5309    1.2634 C   0  0  0  0  0  0  0  0  0  0  0  0
    4.9990   -0.4537    0.4427 O   0  0  0  0  0  0  0  0  0  0  0  0
  2  1  1  1
  2  3  1  0
  3  4  1  0
  4  5  1  0
  5  6  2  0
  6  7  1  0
  7  8  2  0
  2  9  1  0
  9 10  1  0
 10 11  2  0
 11 12  1  0
 12 13  2  0
 13 14  1  0
 14 15  2  0
 15 16  1  0
 16 17  1  0
 17 18  2  0
 18 19  1  0
 19 20  2  0
 20 21  1  0
 20 22  1  0
 22 23  2  0
 23 24  1  0
 15 25  1  0
 25 26  2  0
 25 27  1  0
 27 28  1  0
 27 29  1  0
 29 30  2  0
 31 32  1  0
 32 33  2  0
 32 34  1  0
 34 35  1  0
 35 36  1  0
 36 37  1  0
 37 38  1  0
 38 39  1  0
 39 40  1  0
 40 41  2  0
 40 42  1  0
 42 43  1  0
 43 44  1  0
  8  4  1  0
 30 10  1  0
 29 13  1  0
 23 17  1  0
M  CHG  1  33   1
M  END

