
     RDKit          3D

 45 48  0  0  0  0  0  0  0  0999 V2000
   -4.1275    1.7035    1.3423 C   0  0  0  0  0  0  0  0  0  0  0  0
   -4.3167    0.7388    0.2388 C   0  0  0  0  0  0  0  0  0  0  0  0
   -4.5193   -0.6719    0.6099 C   0  0  0  0  0  0  0  0  0  0  0  0
   -3.6364    1.0243   -1.0462 C   0  0  0  0  0  0  0  0  0  0  0  0
   -2.2121    1.0945   -0.8502 N   0  0  0  0  0  0  0  0  0  0  0  0
   -1.4055    0.0423   -0.3681 C   0  0  0  0  0  0  0  0  0  0  0  0
   -1.9122   -1.0649   -0.0722 O   0  0  0  0  0  0  0  0  0  0  0  0
    0.0519    0.3173   -0.2340 C   0  0  0  0  0  0  0  0  0  0  0  0
    0.7451   -0.9195    0.2930 C   0  0  0  0  0  0  0  0  0  0  0  0
    2.1914   -0.6357    0.4226 C   0  0  0  0  0  0  0  0  0  0  0  0
    3.0122   -0.8899   -0.6442 C   0  0  0  0  0  0  0  0  0  0  0  0
    4.3774   -0.6267   -0.5350 C   0  0  0  0  0  0  0  0  0  0  0  0
    4.9317   -0.1143    0.6231 C   0  0  0  0  0  0  0  0  0  0  0  0
    4.0917    0.1320    1.6768 C   0  0  0  0  0  0  0  0  0  0  0  0
    2.7284   -0.1299    1.5703 C   0  0  0  0  0  0  0  0  0  0  0  0
    3.3044    1.5845   -2.0635 C   0  0  0  0  0  0  0  0  0  0  0  0
    4.2776    1.0329   -0.8565 C   0  0  2  0  0  0  0  0  0  0  0  0
    5.5051    0.6618   -1.8825 C   0  0  0  0  0  0  0  0  0  0  0  0
    6.5209    0.1296   -0.9635 N   0  0  0  0  0  0  0  0  0  0  0  0
    7.4654    0.8095   -0.3437 N   0  0  0  0  0  0  0  0  0  0  0  0
    8.2097   -0.0025    0.4138 C   0  0  0  0  0  0  0  0  0  0  0  0
    7.6901   -1.2349    0.2442 N   0  0  0  0  0  0  0  0  0  0  0  0
    6.6731   -1.1187   -0.5926 N   0  0  0  0  0  0  0  0  0  0  0  0
    3.6674   -0.4133   -0.8987 N   0  0  0  0  0  0  0  0  0  0  0  0
    2.2472   -0.4433   -0.6253 C   0  0  0  0  0  0  0  0  0  0  0  0
    1.6042   -1.5947   -0.6283 N   0  0  0  0  0  0  0  0  0  0  0  0
    0.2852   -1.6751   -0.3802 C   0  0  0  0  0  0  0  0  0  0  0  0
   -0.4537   -0.5204   -0.1076 C   0  0  0  0  0  0  0  0  0  0  0  0
   -1.8084   -0.5548    0.1526 C   0  0  0  0  0  0  0  0  0  0  0  0
   -2.4532    0.6239    0.4095 C   0  0  0  0  0  0  0  0  0  0  0  0
   -3.8251    0.6923    0.6845 O   0  0  0  0  0  0  0  0  0  0  0  0
   -4.6191   -0.4483    0.7121 C   0  0  0  0  0  0  0  0  0  0  0  0
   -4.1203   -1.7123    0.4742 C   0  0  0  0  0  0  0  0  0  0  0  0
   -4.9387   -2.8282    0.5093 C   0  0  0  0  0  0  0  0  0  0  0  0
   -6.2850   -2.7250    0.7832 C   0  0  0  0  0  0  0  0  0  0  0  0
   -7.1179   -3.8003    0.8257 F   0  0  0  0  0  0  0  0  0  0  0  0
   -6.7947   -1.4666    1.0227 C   0  0  0  0  0  0  0  0  0  0  0  0
   -5.9674   -0.3627    0.9845 C   0  0  0  0  0  0  0  0  0  0  0  0
   -6.4595    0.8907    1.2200 F   0  0  0  0  0  0  0  0  0  0  0  0
   -1.7773    1.8254    0.4117 C   0  0  0  0  0  0  0  0  0  0  0  0
   -2.4015    2.8952    0.6525 O   0  0  0  0  0  0  0  0  0  0  0  0
   -0.4503    1.8155    0.1520 N   0  0  0  0  0  0  0  0  0  0  0  0
    0.2520    3.1084    0.1591 C   0  0  0  0  0  0  0  0  0  0  0  0
    0.2273    0.6840   -0.1061 C   0  0  0  0  0  0  0  0  0  0  0  0
    1.5425    0.6782   -0.3631 N   0  0  0  0  0  0  0  0  0  0  0  0
  1  2  1  0
  2  3  1  0
  2  4  1  0
  4  5  1  0
  5  6  1  0
  6  7  2  0
  6  8  1  0
  8  9  1  0
  9 10  1  0
 10 11  2  0
 11 12  1  0
 12 13  2  0
 13 14  1  0
 14 15  2  0
 17 16  1  6
 17 18  1  0
 18 19  1  0
 19 20  1  0
 20 21  2  0
 21 22  1  0
 22 23  2  0
 17 24  1  0
 24 25  1  0
 25 26  2  0
 26 27  1  0
 27 28  2  0
 28 29  1  0
 29 30  2  0
 30 31  1  0
 31 32  1  0
 32 33  2  0
 33 34  1  0
 34 35  2  0
 35 36  1  0
 35 37  1  0
 37 38  2  0
 38 39  1  0
 30 40  1  0
 40 41  2  0
 40 42  1  0
 42 43  1  0
 42 44  1  0
 44 45  2  0
 15 10  1  0
 23 19  1  0
 45 25  1  0
 44 28  1  0
 38 32  1  0
M  END

