
     RDKit          3D

 41 44  0  0  0  0  0  0  0  0999 V2000
    3.7062   -0.6540    0.3201 C   0  0  0  0  0  0  0  0  0  0  0  0
    2.4749    0.3718   -0.0630 C   0  0  1  0  0  0  0  0  0  0  0  0
    2.0319   -0.5119   -1.2141 O   0  0  0  0  0  0  0  0  0  0  0  0
    1.4452   -0.3834    0.9795 C   0  0  0  0  0  0  0  0  0  0  0  0
    0.2788    0.5448    0.8901 C   0  0  0  0  0  0  0  0  0  0  0  0
    0.4478    1.7425    1.2546 O   0  0  0  0  0  0  0  0  0  0  0  0
   -1.0027    0.1009    0.4529 N   0  0  0  0  0  0  0  0  0  0  0  0
   -2.1468    0.9558    0.2709 C   0  0  0  0  0  0  0  0  0  0  0  0
   -3.0953    0.2627   -0.6632 C   0  0  0  0  0  0  0  0  0  0  0  0
   -2.6278   -1.1763   -0.6597 C   0  0  0  0  0  0  0  0  0  0  0  0
   -1.5121   -1.2529    0.3761 C   0  0  0  0  0  0  0  0  0  0  0  0
    6.0168    1.3666    1.4160 C   0  0  0  0  0  0  0  0  0  0  0  0
    4.5000    0.7860    1.5334 C   0  0  2  0  0  0  0  0  0  0  0  0
    4.8762   -0.6885    0.9758 C   0  0  0  0  0  0  0  0  0  0  0  0
    5.4129   -0.5983   -0.3339 N   0  0  0  0  0  0  0  0  0  0  0  0
    4.8122   -0.6340   -1.5137 N   0  0  0  0  0  0  0  0  0  0  0  0
    5.7181   -0.5128   -2.4677 C   0  0  0  0  0  0  0  0  0  0  0  0
    6.9197   -0.3977   -1.8804 N   0  0  0  0  0  0  0  0  0  0  0  0
    6.7029   -0.4528   -0.5912 N   0  0  0  0  0  0  0  0  0  0  0  0
    4.0471    1.3453    0.1558 N   0  0  0  0  0  0  0  0  0  0  0  0
    2.6922    1.0482   -0.1666 C   0  0  0  0  0  0  0  0  0  0  0  0
    2.2206    1.4920   -1.3338 N   0  0  0  0  0  0  0  0  0  0  0  0
    0.9754    1.2711   -1.7307 C   0  0  0  0  0  0  0  0  0  0  0  0
    0.1348    0.5511   -0.8978 C   0  0  0  0  0  0  0  0  0  0  0  0
   -1.1668    0.2803   -1.2356 C   0  0  0  0  0  0  0  0  0  0  0  0
   -1.9926   -0.4389   -0.3947 C   0  0  0  0  0  0  0  0  0  0  0  0
   -3.2774   -0.6714   -0.7954 O   0  0  0  0  0  0  0  0  0  0  0  0
   -4.4197   -0.2793   -0.1540 C   0  0  0  0  0  0  0  0  0  0  0  0
   -4.4161    0.4213    1.0137 C   0  0  0  0  0  0  0  0  0  0  0  0
   -5.6160    0.7813    1.6010 C   0  0  0  0  0  0  0  0  0  0  0  0
   -6.8318    0.4568    1.0476 C   0  0  0  0  0  0  0  0  0  0  0  0
   -8.0148    0.8045    1.6145 F   0  0  0  0  0  0  0  0  0  0  0  0
   -6.8242   -0.2586   -0.1447 C   0  0  0  0  0  0  0  0  0  0  0  0
   -5.6377   -0.6160   -0.7278 C   0  0  0  0  0  0  0  0  0  0  0  0
   -5.6526   -1.3106   -1.8857 F   0  0  0  0  0  0  0  0  0  0  0  0
   -1.4999   -0.8948    0.8098 C   0  0  0  0  0  0  0  0  0  0  0  0
   -2.2384   -1.5591    1.6025 O   0  0  0  0  0  0  0  0  0  0  0  0
   -0.2267   -0.6232    1.1274 N   0  0  0  0  0  0  0  0  0  0  0  0
    0.3246   -1.0958    2.4026 C   0  0  0  0  0  0  0  0  0  0  0  0
    0.5935    0.0777    0.3180 C   0  0  0  0  0  0  0  0  0  0  0  0
    1.8677    0.3495    0.6358 N   0  0  0  0  0  0  0  0  0  0  0  0
  2  1  1  1
  2  3  1  0
  2  4  1  0
  4  5  1  0
  5  6  2  0
  5  7  1  0
  7  8  1  0
  8  9  1  0
  9 10  1  0
 10 11  1  0
 13 12  1  6
 13 14  1  0
 14 15  1  0
 15 16  1  0
 16 17  2  0
 17 18  1  0
 18 19  2  0
 13 20  1  0
 20 21  1  0
 21 22  2  0
 22 23  1  0
 23 24  2  0
 24 25  1  0
 25 26  2  0
 26 27  1  0
 27 28  1  0
 28 29  2  0
 29 30  1  0
 30 31  2  0
 31 32  1  0
 31 33  1  0
 33 34  2  0
 34 35  1  0
 26 36  1  0
 36 37  2  0
 36 38  1  0
 38 39  1  0
 38 40  1  0
 40 41  2  0
 11  7  1  0
 19 15  1  0
 41 21  1  0
 40 24  1  0
 34 28  1  0
M  END

