
     RDKit          3D

 43 45  0  0  0  0  0  0  0  0999 V2000
    5.0533    1.5653    0.1720 C   0  0  0  0  0  0  0  0  0  0  0  0
    4.0303    0.4783    0.1153 C   0  0  0  0  0  0  0  0  0  0  0  0
    4.4110   -0.7547    0.8850 C   0  0  0  0  0  0  0  0  0  0  0  0
    2.6315    0.9518    0.4042 C   0  0  0  0  0  0  0  0  0  0  0  0
    1.7556   -0.2048    0.3135 N   0  0  0  0  0  0  0  0  0  0  0  0
    0.3671   -0.1586    0.5210 C   0  0  0  0  0  0  0  0  0  0  0  0
   -0.1635    0.9533    0.8049 O   0  0  0  0  0  0  0  0  0  0  0  0
   -0.4335   -1.3800    0.4073 C   0  0  0  0  0  0  0  0  0  0  0  0
   -1.8903   -1.1805    0.6534 C   0  0  0  0  0  0  0  0  0  0  0  0
   -2.5326   -0.2122   -0.2992 C   0  0  0  0  0  0  0  0  0  0  0  0
   -3.9693   -0.0841    0.0261 C   0  0  0  0  0  0  0  0  0  0  0  0
   -4.7854    0.7508   -0.7076 O   0  0  0  0  0  1  0  0  0  0  0  0
   -4.4742   -0.7247    0.9667 O   0  0  0  0  0  0  0  0  0  0  0  0
    4.6976    0.3544   -1.4232 C   0  0  0  0  0  0  0  0  0  0  0  0
    4.7970   -0.4963    0.0228 C   0  0  1  0  0  0  0  0  0  0  0  0
    6.0267    0.5050    0.5699 C   0  0  0  0  0  0  0  0  0  0  0  0
    6.3601    0.0053    1.8785 N   0  0  0  0  0  0  0  0  0  0  0  0
    7.2912   -0.9268    2.0248 N   0  0  0  0  0  0  0  0  0  0  0  0
    7.4394   -1.2429    3.3174 C   0  0  0  0  0  0  0  0  0  0  0  0
    6.5550   -0.4614    3.9645 N   0  0  0  0  0  0  0  0  0  0  0  0
    5.9199    0.2791    3.0714 N   0  0  0  0  0  0  0  0  0  0  0  0
    3.6427    0.3615    0.6774 N   0  0  0  0  0  0  0  0  0  0  0  0
    2.4046    0.2991    0.0119 C   0  0  0  0  0  0  0  0  0  0  0  0
    2.2787   -0.4518   -1.0920 N   0  0  0  0  0  0  0  0  0  0  0  0
    1.1523   -0.5829   -1.8009 C   0  0  0  0  0  0  0  0  0  0  0  0
    0.0285    0.1128   -1.3577 C   0  0  0  0  0  0  0  0  0  0  0  0
   -1.1757    0.0285   -2.0378 C   0  0  0  0  0  0  0  0  0  0  0  0
   -2.2341    0.7499   -1.5284 C   0  0  0  0  0  0  0  0  0  0  0  0
   -3.4915    0.7211   -2.1561 O   0  0  0  0  0  0  0  0  0  0  0  0
   -4.6310    0.2720   -1.4996 C   0  0  0  0  0  0  0  0  0  0  0  0
   -5.7258    1.0912   -1.3154 C   0  0  0  0  0  0  0  0  0  0  0  0
   -6.8477    0.6361   -0.6644 C   0  0  0  0  0  0  0  0  0  0  0  0
   -6.9382   -0.6475   -0.1666 C   0  0  0  0  0  0  0  0  0  0  0  0
   -8.0755   -1.0327    0.4661 F   0  0  0  0  0  0  0  0  0  0  0  0
   -5.8519   -1.4707   -0.3456 C   0  0  0  0  0  0  0  0  0  0  0  0
   -4.7280   -1.0105   -0.9994 C   0  0  0  0  0  0  0  0  0  0  0  0
   -3.6339   -1.8116   -1.1896 F   0  0  0  0  0  0  0  0  0  0  0  0
   -2.0609    1.5096   -0.3901 C   0  0  0  0  0  0  0  0  0  0  0  0
   -3.0697    2.1469    0.0257 O   0  0  0  0  0  0  0  0  0  0  0  0
   -0.8917    1.5758    0.2485 N   0  0  0  0  0  0  0  0  0  0  0  0
   -0.7621    2.3892    1.4413 C   0  0  0  0  0  0  0  0  0  0  0  0
    0.1808    0.8781   -0.2213 C   0  0  0  0  0  0  0  0  0  0  0  0
    1.3432    0.9831    0.4680 N   0  0  0  0  0  0  0  0  0  0  0  0
  1  2  1  0
  2  3  1  0
  2  4  1  0
  4  5  1  0
  5  6  1  0
  6  7  2  0
  6  8  1  0
  8  9  1  0
  9 10  1  0
 10 11  1  0
 11 12  1  0
 11 13  2  0
 15 14  1  1
 15 16  1  0
 16 17  1  0
 17 18  1  0
 18 19  2  0
 19 20  1  0
 20 21  2  0
 15 22  1  0
 22 23  1  0
 23 24  2  0
 24 25  1  0
 25 26  2  0
 26 27  1  0
 27 28  2  0
 28 29  1  0
 29 30  1  0
 30 31  2  0
 31 32  1  0
 32 33  2  0
 33 34  1  0
 33 35  1  0
 35 36  2  0
 36 37  1  0
 28 38  1  0
 38 39  2  0
 38 40  1  0
 40 41  1  0
 40 42  1  0
 42 43  2  0
 21 17  1  0
 43 23  1  0
 42 26  1  0
 36 30  1  0
M  RAD  1  12   2
M  END

