
     RDKit          3D

 47 49  0  0  0  0  0  0  0  0999 V2000
    4.7019   -1.9397   -1.0617 C   0  0  0  0  0  0  0  0  0  0  0  0
    4.9284   -0.6587   -2.0933 C   0  0  2  0  0  0  0  0  0  0  0  0
    6.3791   -0.2256   -1.4365 C   0  0  0  0  0  0  0  0  0  0  0  0
    6.1952    0.0802   -0.0745 N   0  0  0  0  0  0  0  0  0  0  0  0
    6.2971   -0.8294    0.9086 N   0  0  0  0  0  0  0  0  0  0  0  0
    6.0783   -0.2794    2.0917 C   0  0  0  0  0  0  0  0  0  0  0  0
    5.8286    1.0218    1.8600 N   0  0  0  0  0  0  0  0  0  0  0  0
    5.9054    1.2024    0.5668 N   0  0  0  0  0  0  0  0  0  0  0  0
    4.0837    0.3376   -1.2018 N   0  0  0  0  0  0  0  0  0  0  0  0
    2.7331   -0.1018   -1.0347 C   0  0  0  0  0  0  0  0  0  0  0  0
    2.2297   -1.2211   -1.5640 N   0  0  0  0  0  0  0  0  0  0  0  0
    0.9594   -1.6260   -1.4016 C   0  0  0  0  0  0  0  0  0  0  0  0
    0.1226   -0.8131   -0.6263 C   0  0  0  0  0  0  0  0  0  0  0  0
   -1.1693   -1.1315   -0.4039 C   0  0  0  0  0  0  0  0  0  0  0  0
   -2.0560   -0.3387    0.3750 C   0  0  0  0  0  0  0  0  0  0  0  0
   -3.3029   -0.7636    0.5188 O   0  0  0  0  0  0  0  0  0  0  0  0
   -4.5770   -0.5244    0.2908 C   0  0  0  0  0  0  0  0  0  0  0  0
   -5.2428   -1.4551   -0.5904 C   0  0  0  0  0  0  0  0  0  0  0  0
   -6.5475   -1.3348   -0.9120 C   0  0  0  0  0  0  0  0  0  0  0  0
   -7.2988   -0.2982   -0.3979 C   0  0  0  0  0  0  0  0  0  0  0  0
   -8.6088   -0.1965   -0.7364 F   0  0  0  0  0  0  0  0  0  0  0  0
   -6.6703    0.5847    0.4379 C   0  0  0  0  0  0  0  0  0  0  0  0
   -5.3187    0.4935    0.7960 C   0  0  0  0  0  0  0  0  0  0  0  0
   -4.8244    1.4242    1.6622 F   0  0  0  0  0  0  0  0  0  0  0  0
   -1.4850    0.7910    0.8900 C   0  0  0  0  0  0  0  0  0  0  0  0
   -2.0881    1.6140    1.5994 O   0  0  0  0  0  0  0  0  0  0  0  0
   -0.1735    1.1230    0.6691 N   0  0  0  0  0  0  0  0  0  0  0  0
    0.3888    2.3375    1.2386 C   0  0  0  0  0  0  0  0  0  0  0  0
    0.6184    0.3426   -0.0719 C   0  0  0  0  0  0  0  0  0  0  0  0
    1.9133    0.6575   -0.2980 N   0  0  0  0  0  0  0  0  0  0  0  0
    6.3177   -0.7733    1.9959 N   0  0  0  0  0  0  0  0  0  0  0  0
    4.9884   -0.7971    1.4819 C   0  0  0  0  0  0  0  0  0  0  0  0
    4.6510   -1.6878    0.6230 N   0  0  0  0  0  4  0  0  0  0  0  0
    4.0031    0.1491    1.8945 N   0  0  0  0  0  0  0  0  0  0  0  0
    2.6587    0.0542    1.3163 C   0  0  0  0  0  0  0  0  0  0  0  0
    2.8611    0.2278   -0.1943 C   0  0  0  0  0  0  0  0  0  0  0  0
    1.5454    0.1476   -0.8874 C   0  0  0  0  0  0  0  0  0  0  0  0
    0.5745    1.2081   -0.4324 C   0  0  0  0  0  0  0  0  0  0  0  0
   -0.6990    1.0491   -1.1735 C   0  0  0  0  0  0  0  0  0  0  0  0
   -0.8084    0.1295   -2.0193 O   0  0  0  0  0  0  0  0  0  0  0  0
   -1.7918    1.9533   -0.9111 N   0  0  0  0  0  0  0  0  0  0  0  0
   -3.0030    1.7226   -1.6847 C   0  0  0  0  0  0  0  0  0  0  0  0
   -3.5582    0.3545   -1.4334 C   0  0  0  0  0  0  0  0  0  0  0  0
   -3.8917    0.1931    0.0147 C   0  0  0  0  0  0  0  0  0  0  0  0
   -4.4450   -1.1339    0.3368 C   0  0  0  0  0  0  0  0  0  0  0  0
   -4.8219   -1.4743    1.6631 N   0  0  0  0  0  0  0  0  0  0  0  0
   -4.5807   -1.9711   -0.5897 O   0  0  0  0  0  0  0  0  0  0  0  0
  2  1  1  1
  2  3  1  0
  3  4  1  0
  4  5  1  0
  5  6  2  0
  6  7  1  0
  7  8  2  0
  2  9  1  0
  9 10  1  0
 10 11  2  0
 11 12  1  0
 12 13  2  0
 13 14  1  0
 14 15  2  0
 15 16  1  0
 16 17  1  0
 17 18  2  0
 18 19  1  0
 19 20  2  0
 20 21  1  0
 20 22  1  0
 22 23  2  0
 23 24  1  0
 15 25  1  0
 25 26  2  0
 25 27  1  0
 27 28  1  0
 27 29  1  0
 29 30  2  0
 31 32  1  0
 32 33  2  0
 32 34  1  0
 34 35  1  0
 35 36  1  0
 36 37  1  0
 37 38  1  0
 38 39  1  0
 39 40  2  0
 39 41  1  0
 41 42  1  0
 42 43  1  0
 43 44  1  0
 44 45  1  0
 45 46  1  0
 45 47  2  0
  8  4  1  0
 30 10  1  0
 29 13  1  0
 23 17  1  0
M  CHG  1  33   1
M  END

