
     RDKit          3D

 50 53  0  0  0  0  0  0  0  0999 V2000
    3.2252   -2.4220    0.3895 C   0  0  0  0  0  0  0  0  0  0  0  0
    4.1219   -1.2546   -0.3942 C   0  0  2  0  0  0  0  0  0  0  0  0
    5.4155   -1.4675    0.6256 C   0  0  0  0  0  0  0  0  0  0  0  0
    6.4016   -0.5238    0.1492 N   0  0  0  0  0  0  0  0  0  0  0  0
    7.3496   -0.6964   -0.7569 N   0  0  0  0  0  0  0  0  0  0  0  0
    8.0573    0.4491   -0.9046 C   0  0  0  0  0  0  0  0  0  0  0  0
    7.4825    1.3147   -0.0395 N   0  0  0  0  0  0  0  0  0  0  0  0
    6.4810    0.7268    0.5981 N   0  0  0  0  0  0  0  0  0  0  0  0
    3.5209   -0.0788    0.4740 N   0  0  0  0  0  0  0  0  0  0  0  0
    2.1265    0.1017    0.4076 C   0  0  0  0  0  0  0  0  0  0  0  0
    1.4511    1.0402    1.0706 N   0  0  0  0  0  0  0  0  0  0  0  0
    0.1150    1.1798    0.9798 C   0  0  0  0  0  0  0  0  0  0  0  0
   -0.5791    0.3225    0.1730 C   0  0  0  0  0  0  0  0  0  0  0  0
   -1.9474    0.3674   -0.0001 C   0  0  0  0  0  0  0  0  0  0  0  0
   -2.5598   -0.5372   -0.8330 C   0  0  0  0  0  0  0  0  0  0  0  0
   -3.9318   -0.4995   -1.0126 O   0  0  0  0  0  0  0  0  0  0  0  0
   -4.6948    0.4448   -0.3583 C   0  0  0  0  0  0  0  0  0  0  0  0
   -5.4660    1.3709   -1.0184 C   0  0  0  0  0  0  0  0  0  0  0  0
   -6.2280    2.3141   -0.3547 C   0  0  0  0  0  0  0  0  0  0  0  0
   -6.2390    2.3568    1.0141 C   0  0  0  0  0  0  0  0  0  0  0  0
   -6.9781    3.2729    1.7122 F   0  0  0  0  0  0  0  0  0  0  0  0
   -5.4721    1.4364    1.6957 C   0  0  0  0  0  0  0  0  0  0  0  0
   -4.7020    0.4829    1.0167 C   0  0  0  0  0  0  0  0  0  0  0  0
   -3.9652   -0.4001    1.7285 F   0  0  0  0  0  0  0  0  0  0  0  0
   -1.8310   -1.4908   -1.5001 C   0  0  0  0  0  0  0  0  0  0  0  0
   -2.3896   -2.3367   -2.2767 O   0  0  0  0  0  0  0  0  0  0  0  0
   -0.5087   -1.5268   -1.3267 N   0  0  0  0  0  0  0  0  0  0  0  0
    0.2337   -2.5631   -2.0594 C   0  0  0  0  0  0  0  0  0  0  0  0
    0.0888   -0.6556   -0.5234 C   0  0  0  0  0  0  0  0  0  0  0  0
    1.4220   -0.7280   -0.3781 N   0  0  0  0  0  0  0  0  0  0  0  0
    2.3810    4.3668   -0.6805 N   0  0  0  0  0  0  0  0  0  0  0  0
    2.6432    3.2027    0.1264 C   0  0  0  0  0  0  0  0  0  0  0  0
    3.8309    2.7386    0.1975 N   0  0  0  0  0  4  0  0  0  0  0  0
    1.5843    2.5665    0.8455 N   0  0  0  0  0  0  0  0  0  0  0  0
    1.8742    1.3885    1.6564 C   0  0  0  0  0  0  0  0  0  0  0  0
    0.5588    0.9499    2.2876 C   0  0  0  0  0  0  0  0  0  0  0  0
    0.8624   -0.2864    3.1387 C   0  0  0  0  0  0  0  0  0  0  0  0
    1.4135   -1.3303    2.2128 C   0  0  0  0  0  0  0  0  0  0  0  0
    0.4053   -1.6484    1.1643 C   0  0  0  0  0  0  0  0  0  0  0  0
   -0.6909   -1.0524    1.1837 O   0  0  0  0  0  0  0  0  0  0  0  0
    0.6367   -2.5832    0.1645 N   0  0  0  0  0  0  0  0  0  0  0  0
   -0.1100   -3.0370   -0.9091 C   0  0  0  0  0  0  0  0  0  0  0  0
   -0.4420   -2.1465   -1.9951 C   0  0  0  0  0  0  0  0  0  0  0  0
   -1.1849   -0.9391   -1.6758 C   0  0  0  0  0  0  0  0  0  0  0  0
   -2.5639   -0.9251   -1.5151 C   0  0  0  0  0  0  0  0  0  0  0  0
   -3.2897    0.2197   -1.2635 C   0  0  0  0  0  0  0  0  0  0  0  0
   -2.6557    1.4396   -1.1573 C   0  0  0  0  0  0  0  0  0  0  0  0
   -3.4103    2.5756   -0.9037 O   0  0  0  0  0  0  0  0  0  0  0  0
   -1.2872    1.4510   -1.3131 C   0  0  0  0  0  0  0  0  0  0  0  0
   -0.5556    0.3130   -1.5644 C   0  0  0  0  0  0  0  0  0  0  0  0
  2  1  1  1
  2  3  1  0
  3  4  1  0
  4  5  1  0
  5  6  2  0
  6  7  1  0
  7  8  2  0
  2  9  1  0
  9 10  1  0
 10 11  2  0
 11 12  1  0
 12 13  2  0
 13 14  1  0
 14 15  2  0
 15 16  1  0
 16 17  1  0
 17 18  2  0
 18 19  1  0
 19 20  2  0
 20 21  1  0
 20 22  1  0
 22 23  2  0
 23 24  1  0
 15 25  1  0
 25 26  2  0
 25 27  1  0
 27 28  1  0
 27 29  1  0
 29 30  2  0
 31 32  1  0
 32 33  2  0
 32 34  1  0
 34 35  1  0
 35 36  1  0
 36 37  1  0
 37 38  1  0
 38 39  1  0
 39 40  2  0
 39 41  1  0
 41 42  1  0
 42 43  1  0
 43 44  1  0
 44 45  2  0
 45 46  1  0
 46 47  2  0
 47 48  1  0
 47 49  1  0
 49 50  2  0
  8  4  1  0
 30 10  1  0
 50 44  1  0
 29 13  1  0
 23 17  1  0
M  CHG  1  33   1
M  END

