
     RDKit          3D

 44 46  0  0  0  0  0  0  0  0999 V2000
    4.4830    0.7628    1.0180 C   0  0  0  0  0  0  0  0  0  0  0  0
    3.5664    1.1883   -0.0588 C   0  0  0  0  0  0  0  0  0  0  0  0
    2.6307    2.2423    0.2760 C   0  0  0  0  0  0  0  0  0  0  0  0
    3.2059    0.2327   -1.1122 C   0  0  0  0  0  0  0  0  0  0  0  0
    2.5358   -1.0120   -0.6327 C   0  0  0  0  0  0  0  0  0  0  0  0
    1.2585   -0.7649    0.0559 C   0  0  0  0  0  0  0  0  0  0  0  0
    0.7190    0.3489    0.2115 O   0  0  0  0  0  0  0  0  0  0  0  0
    0.4926   -1.8507    0.6339 N   0  0  0  0  0  0  0  0  0  0  0  0
   -0.7521   -1.6552    1.3110 C   0  0  0  0  0  0  0  0  0  0  0  0
   -1.8125   -1.0301    0.4358 C   0  0  0  0  0  0  0  0  0  0  0  0
   -3.0678   -0.8669    1.2262 C   0  0  0  0  0  0  0  0  0  0  0  0
   -4.1977   -0.2578    0.4740 C   0  0  0  0  0  0  0  0  0  0  0  0
   -3.9259    1.1121   -0.0548 C   0  0  0  0  0  0  0  0  0  0  0  0
   -5.1359    1.5506   -0.7603 N   0  0  0  0  0  4  0  0  0  0  0  0
   -3.5994    0.4418   -0.1328 C   0  0  0  0  0  0  0  0  0  0  0  0
   -4.3138   -1.0496   -0.2722 C   0  0  2  0  0  0  0  0  0  0  0  0
   -5.7334   -0.5091    0.4368 C   0  0  0  0  0  0  0  0  0  0  0  0
   -6.1045    0.5432   -0.5019 N   0  0  0  0  0  0  0  0  0  0  0  0
   -6.8558    0.3627   -1.5599 N   0  0  0  0  0  0  0  0  0  0  0  0
   -7.0038    1.5363   -2.2092 C   0  0  0  0  0  0  0  0  0  0  0  0
   -6.3130    2.4487   -1.5085 N   0  0  0  0  0  0  0  0  0  0  0  0
   -5.7788    1.8241   -0.4816 N   0  0  0  0  0  0  0  0  0  0  0  0
   -3.7314   -1.5514    1.1130 N   0  0  0  0  0  0  0  0  0  0  0  0
   -2.3150   -1.5333    1.1311 C   0  0  0  0  0  0  0  0  0  0  0  0
   -1.7213   -1.9432    2.2683 N   0  0  0  0  0  0  0  0  0  0  0  0
   -0.3681   -1.9668    2.3964 C   0  0  0  0  0  0  0  0  0  0  0  0
    0.3877   -1.5515    1.3084 C   0  0  0  0  0  0  0  0  0  0  0  0
    1.7517   -1.5541    1.3802 C   0  0  0  0  0  0  0  0  0  0  0  0
    2.4795   -1.1372    0.2867 C   0  0  0  0  0  0  0  0  0  0  0  0
    3.8607   -1.1534    0.3958 O   0  0  0  0  0  0  0  0  0  0  0  0
    4.6073    0.0105    0.2537 C   0  0  0  0  0  0  0  0  0  0  0  0
    5.5431    0.0519   -0.7553 C   0  0  0  0  0  0  0  0  0  0  0  0
    6.2817    1.2205   -0.8858 C   0  0  0  0  0  0  0  0  0  0  0  0
    6.0641    2.2713   -0.0298 C   0  0  0  0  0  0  0  0  0  0  0  0
    6.8254    3.3909   -0.2142 F   0  0  0  0  0  0  0  0  0  0  0  0
    5.1205    2.1989    0.9695 C   0  0  0  0  0  0  0  0  0  0  0  0
    4.3781    1.0473    1.1144 C   0  0  0  0  0  0  0  0  0  0  0  0
    3.4502    0.9585    2.0867 F   0  0  0  0  0  0  0  0  0  0  0  0
    1.8659   -0.7224   -0.8649 C   0  0  0  0  0  0  0  0  0  0  0  0
    2.5817   -0.3493   -1.8405 O   0  0  0  0  0  0  0  0  0  0  0  0
    0.5290   -0.7303   -0.9069 N   0  0  0  0  0  0  0  0  0  0  0  0
   -0.1192   -0.2886   -2.1328 C   0  0  0  0  0  0  0  0  0  0  0  0
   -0.2074   -1.1304    0.1408 C   0  0  0  0  0  0  0  0  0  0  0  0
   -1.5616   -1.1362    0.0923 N   0  0  0  0  0  0  0  0  0  0  0  0
  1  2  1  0
  2  3  1  0
  2  4  1  0
  4  5  1  0
  5  6  1  0
  6  7  2  0
  6  8  1  0
  8  9  1  0
  9 10  1  0
 10 11  1  0
 11 12  1  0
 12 13  1  0
 13 14  1  0
 16 15  1  1
 16 17  1  0
 17 18  1  0
 18 19  1  0
 19 20  2  0
 20 21  1  0
 21 22  2  0
 16 23  1  0
 23 24  1  0
 24 25  2  0
 25 26  1  0
 26 27  2  0
 27 28  1  0
 28 29  2  0
 29 30  1  0
 30 31  1  0
 31 32  2  0
 32 33  1  0
 33 34  2  0
 34 35  1  0
 34 36  1  0
 36 37  2  0
 37 38  1  0
 29 39  1  0
 39 40  2  0
 39 41  1  0
 41 42  1  0
 41 43  1  0
 43 44  2  0
 22 18  1  0
 44 24  1  0
 43 27  1  0
 37 31  1  0
M  CHG  1  14   1
M  END

