
     RDKit          3D

 43 45  0  0  0  0  0  0  0  0999 V2000
   -4.0006    2.1861   -0.0531 C   0  0  0  0  0  0  0  0  0  0  0  0
   -2.7253    1.3829   -0.1494 C   0  0  0  0  0  0  0  0  0  0  0  0
   -3.1809   -0.1479   -0.5173 C   0  0  2  0  0  0  0  0  0  0  0  0
   -4.0861   -0.3234    0.8436 C   0  0  0  0  0  0  0  0  0  0  0  0
   -1.8683   -0.8436    0.1695 C   0  0  0  0  0  0  0  0  0  0  0  0
   -0.7355   -0.3083   -0.5302 N   0  0  0  0  0  0  0  0  0  0  0  0
    0.5609   -0.7226   -0.1623 C   0  0  0  0  0  0  0  0  0  0  0  0
    0.6559   -1.5546    0.7770 O   0  0  0  0  0  0  0  0  0  0  0  0
    1.7629   -0.1724   -0.8845 C   0  0  0  0  0  0  0  0  0  0  0  0
    2.9984   -0.9251   -0.1265 C   0  0  1  0  0  0  0  0  0  0  0  0
    4.1674   -0.2199   -1.0224 C   0  0  0  0  0  0  0  0  0  0  0  0
    3.0850    0.1545    1.0924 C   0  0  0  0  0  0  0  0  0  0  0  0
    3.3661    1.4945    0.5632 C   0  0  0  0  0  0  0  0  0  0  0  0
   -4.7540   -1.5435    1.2219 C   0  0  0  0  0  0  0  0  0  0  0  0
   -4.5779   -0.7254    2.6410 C   0  0  2  0  0  0  0  0  0  0  0  0
   -6.0021    0.0775    2.5308 C   0  0  0  0  0  0  0  0  0  0  0  0
   -6.0105    0.8608    1.3517 N   0  0  0  0  0  0  0  0  0  0  0  0
   -6.4644    0.3738    0.1847 N   0  0  0  0  0  0  0  0  0  0  0  0
   -6.3655    1.3033   -0.7640 C   0  0  0  0  0  0  0  0  0  0  0  0
   -5.8484    2.3826   -0.2006 N   0  0  0  0  0  0  0  0  0  0  0  0
   -5.6429    2.0901    1.0771 N   0  0  0  0  0  0  0  0  0  0  0  0
   -3.7306    0.4289    2.0065 N   0  0  0  0  0  0  0  0  0  0  0  0
   -2.5290   -0.1039    1.4438 C   0  0  0  0  0  0  0  0  0  0  0  0
   -2.1679   -1.3778    1.4477 N   0  0  0  0  0  0  0  0  0  0  0  0
   -1.0415   -1.8802    0.9206 C   0  0  0  0  0  0  0  0  0  0  0  0
   -0.1601   -0.9833    0.3078 C   0  0  0  0  0  0  0  0  0  0  0  0
    0.9973   -1.4060   -0.2478 C   0  0  0  0  0  0  0  0  0  0  0  0
    1.9033   -0.4894   -0.8767 C   0  0  0  0  0  0  0  0  0  0  0  0
    3.0098   -0.9721   -1.3979 O   0  0  0  0  0  0  0  0  0  0  0  0
    4.3309   -0.9590   -1.3169 C   0  0  0  0  0  0  0  0  0  0  0  0
    4.9642   -2.1967   -0.9240 C   0  0  0  0  0  0  0  0  0  0  0  0
    6.3097   -2.2805   -0.8151 C   0  0  0  0  0  0  0  0  0  0  0  0
    7.1675   -1.2334   -1.0595 C   0  0  0  0  0  0  0  0  0  0  0  0
    8.5089   -1.3710   -0.9334 F   0  0  0  0  0  0  0  0  0  0  0  0
    6.5878   -0.0518   -1.4341 C   0  0  0  0  0  0  0  0  0  0  0  0
    5.1814    0.0688   -1.5580 C   0  0  0  0  0  0  0  0  0  0  0  0
    4.7010    1.2670   -1.9723 F   0  0  0  0  0  0  0  0  0  0  0  0
    1.4782    0.8062   -0.8509 C   0  0  0  0  0  0  0  0  0  0  0  0
    2.1181    1.7673   -1.3483 O   0  0  0  0  0  0  0  0  0  0  0  0
    0.3151    1.2008   -0.2872 N   0  0  0  0  0  0  0  0  0  0  0  0
   -0.0822    2.6004   -0.2917 C   0  0  0  0  0  0  0  0  0  0  0  0
   -0.5274    0.3432    0.2991 C   0  0  0  0  0  0  0  0  0  0  0  0
   -1.6687    0.7710    0.8457 N   0  0  0  0  0  0  0  0  0  0  0  0
  1  2  1  0
  2  3  1  0
  3  4  1  1
  3  5  1  0
  5  6  1  0
  6  7  1  0
  7  8  2  0
  7  9  1  0
  9 10  1  0
 10 11  1  6
 10 12  1  0
 12 13  1  0
 15 14  1  6
 15 16  1  0
 16 17  1  0
 17 18  1  0
 18 19  2  0
 19 20  1  0
 20 21  2  0
 15 22  1  0
 22 23  1  0
 23 24  2  0
 24 25  1  0
 25 26  2  0
 26 27  1  0
 27 28  2  0
 28 29  1  0
 29 30  1  0
 30 31  2  0
 31 32  1  0
 32 33  2  0
 33 34  1  0
 33 35  1  0
 35 36  2  0
 36 37  1  0
 28 38  1  0
 38 39  2  0
 38 40  1  0
 40 41  1  0
 40 42  1  0
 42 43  2  0
 21 17  1  0
 43 23  1  0
 42 26  1  0
 36 30  1  0
M  END

