
     RDKit          3D

 43 46  0  0  0  0  0  0  0  0999 V2000
    5.1887   -0.4355   -0.0740 C   0  0  0  0  0  0  0  0  0  0  0  0
    3.7468   -0.2155    0.1228 C   0  0  0  0  0  0  0  0  0  0  0  0
    3.1853   -0.6113    1.1993 O   0  0  0  0  0  0  0  0  0  0  0  0
    2.8962    0.4227   -0.8169 N   0  0  0  0  0  0  0  0  0  0  0  0
    1.5012    0.6386   -0.6326 C   0  0  0  0  0  0  0  0  0  0  0  0
    0.7261   -0.6583   -0.4455 C   0  0  0  0  0  0  0  0  0  0  0  0
   -0.7153   -0.3059   -0.2628 C   0  0  0  0  0  0  0  0  0  0  0  0
   -1.2461   -0.0662    0.9885 C   0  0  0  0  0  0  0  0  0  0  0  0
   -2.5732    0.2605    1.1800 C   0  0  0  0  0  0  0  0  0  0  0  0
   -3.4366    0.3619    0.1072 C   0  0  0  0  0  0  0  0  0  0  0  0
   -4.7785    0.6889    0.2649 O   0  0  0  0  0  0  0  0  0  0  0  0
   -2.9125    0.1234   -1.1477 C   0  0  0  0  0  0  0  0  0  0  0  0
   -1.5820   -0.2033   -1.3313 C   0  0  0  0  0  0  0  0  0  0  0  0
    3.9813   -3.1437   -0.1276 C   0  0  0  0  0  0  0  0  0  0  0  0
    4.8945   -1.9494   -0.8058 C   0  0  2  0  0  0  0  0  0  0  0  0
    4.8246   -0.9694    0.5065 C   0  0  0  0  0  0  0  0  0  0  0  0
    5.5924    0.2041    0.1354 N   0  0  0  0  0  0  0  0  0  0  0  0
    6.8543    0.4866    0.2678 N   0  0  0  0  0  0  0  0  0  0  0  0
    7.0702    1.7050   -0.2370 C   0  0  0  0  0  0  0  0  0  0  0  0
    5.9093    2.1779   -0.6891 N   0  0  0  0  0  0  0  0  0  0  0  0
    5.0189    1.2484   -0.4534 N   0  0  0  0  0  0  0  0  0  0  0  0
    3.7034   -1.3021   -1.5667 N   0  0  0  0  0  0  0  0  0  0  0  0
    2.6187   -0.9766   -0.7789 C   0  0  0  0  0  0  0  0  0  0  0  0
    2.5708   -1.1962    0.5410 N   0  0  0  0  0  0  0  0  0  0  0  0
    1.4842   -0.8568    1.2565 C   0  0  0  0  0  0  0  0  0  0  0  0
    0.3694   -0.2703    0.6826 C   0  0  0  0  0  0  0  0  0  0  0  0
   -0.7482    0.0793    1.4161 C   0  0  0  0  0  0  0  0  0  0  0  0
   -1.8408    0.6627    0.8063 C   0  0  0  0  0  0  0  0  0  0  0  0
   -2.9814    1.0237    1.5319 O   0  0  0  0  0  0  0  0  0  0  0  0
   -4.1966    0.4596    1.2081 C   0  0  0  0  0  0  0  0  0  0  0  0
   -4.3223   -0.4507    0.1896 C   0  0  0  0  0  0  0  0  0  0  0  0
   -5.5486   -1.0197   -0.1368 C   0  0  0  0  0  0  0  0  0  0  0  0
   -6.6471   -0.6400    0.5989 C   0  0  0  0  0  0  0  0  0  0  0  0
   -7.8743   -1.1642    0.3244 F   0  0  0  0  0  0  0  0  0  0  0  0
   -6.5563    0.2684    1.6246 C   0  0  0  0  0  0  0  0  0  0  0  0
   -5.3118    0.8214    1.9277 C   0  0  0  0  0  0  0  0  0  0  0  0
   -5.1671    1.7223    2.9302 F   0  0  0  0  0  0  0  0  0  0  0  0
   -1.7437    0.8686   -0.5550 C   0  0  0  0  0  0  0  0  0  0  0  0
   -2.7173    1.3952   -1.1357 O   0  0  0  0  0  0  0  0  0  0  0  0
   -0.6446    0.5197   -1.2485 N   0  0  0  0  0  0  0  0  0  0  0  0
   -0.5583    0.7453   -2.6922 C   0  0  0  0  0  0  0  0  0  0  0  0
    0.4356   -0.0512   -0.6781 C   0  0  0  0  0  0  0  0  0  0  0  0
    1.5307   -0.3978   -1.3748 N   0  0  0  0  0  0  0  0  0  0  0  0
  1  2  1  0
  2  3  2  0
  2  4  1  0
  4  5  1  0
  5  6  1  0
  6  7  1  0
  7  8  2  0
  8  9  1  0
  9 10  2  0
 10 11  1  0
 10 12  1  0
 12 13  2  0
 15 14  1  1
 15 16  1  0
 16 17  1  0
 17 18  1  0
 18 19  2  0
 19 20  1  0
 20 21  2  0
 15 22  1  0
 22 23  1  0
 23 24  2  0
 24 25  1  0
 25 26  2  0
 26 27  1  0
 27 28  2  0
 28 29  1  0
 29 30  1  0
 30 31  2  0
 31 32  1  0
 32 33  2  0
 33 34  1  0
 33 35  1  0
 35 36  2  0
 36 37  1  0
 28 38  1  0
 38 39  2  0
 38 40  1  0
 40 41  1  0
 40 42  1  0
 42 43  2  0
 13  7  1  0
 21 17  1  0
 43 23  1  0
 42 26  1  0
 36 30  1  0
M  END

