
     RDKit          3D

 43 45  0  0  0  0  0  0  0  0999 V2000
   -5.2519    0.7886   -0.6611 C   0  0  0  0  0  0  0  0  0  0  0  0
   -4.0530    0.3364    0.1807 C   0  0  0  0  0  0  0  0  0  0  0  0
   -4.2547   -1.1184    0.6204 C   0  0  0  0  0  0  0  0  0  0  0  0
   -2.8571    0.3971   -0.7688 C   0  0  0  0  0  0  0  0  0  0  0  0
   -1.6176   -0.0415   -0.0001 C   0  0  0  0  0  0  0  0  0  0  0  0
   -0.4940    0.0259   -0.9276 N   0  0  0  0  0  0  0  0  0  0  0  0
    0.8304   -0.3342   -0.4884 C   0  0  0  0  0  0  0  0  0  0  0  0
    0.9496   -0.6990    0.7102 O   0  0  0  0  0  0  0  0  0  0  0  0
    1.9882   -0.2772   -1.3975 C   0  0  0  0  0  0  0  0  0  0  0  0
    3.2731   -0.6347   -0.7459 C   0  0  0  0  0  0  0  0  0  0  0  0
    3.6838    0.2303    0.3664 C   0  0  0  0  0  0  0  0  0  0  0  0
    4.5083    1.3504    0.1980 O   0  0  0  0  0  1  0  0  0  0  0  0
    3.2947   -0.0238    1.5165 O   0  0  0  0  0  0  0  0  0  0  0  0
    3.3932    0.2270    2.8582 C   0  0  0  0  0  0  0  0  0  0  0  0
    3.8253   -1.3091    2.5259 C   0  0  2  0  0  0  0  0  0  0  0  0
    5.4153   -1.0576    2.3451 C   0  0  0  0  0  0  0  0  0  0  0  0
    5.7064   -0.1624    1.3321 N   0  0  0  0  0  0  0  0  0  0  0  0
    5.8244    1.1562    1.4540 N   0  0  0  0  0  0  0  0  0  0  0  0
    6.1100    1.6747    0.2602 C   0  0  0  0  0  0  0  0  0  0  0  0
    6.1654    0.6525   -0.5970 N   0  0  0  0  0  0  0  0  0  0  0  0
    5.9201   -0.4740    0.0491 N   0  0  0  0  0  0  0  0  0  0  0  0
    3.5036   -1.1873    1.0095 N   0  0  0  0  0  0  0  0  0  0  0  0
    2.1393   -0.8810    0.7933 C   0  0  0  0  0  0  0  0  0  0  0  0
    1.2225   -0.7127    1.7577 N   0  0  0  0  0  0  0  0  0  0  0  0
   -0.0541   -0.4231    1.4690 C   0  0  0  0  0  0  0  0  0  0  0  0
   -0.4545   -0.2916    0.1755 C   0  0  0  0  0  0  0  0  0  0  0  0
   -1.7398    0.0038   -0.2307 C   0  0  0  0  0  0  0  0  0  0  0  0
   -2.0464    0.1160   -1.5609 C   0  0  0  0  0  0  0  0  0  0  0  0
   -3.3324    0.4120   -1.9794 O   0  0  0  0  0  0  0  0  0  0  0  0
   -4.3084    0.5932   -1.0125 C   0  0  0  0  0  0  0  0  0  0  0  0
   -4.9712    1.7949   -0.9302 C   0  0  0  0  0  0  0  0  0  0  0  0
   -5.9360    1.9728    0.0263 C   0  0  0  0  0  0  0  0  0  0  0  0
   -6.2259    0.9491    0.8871 C   0  0  0  0  0  0  0  0  0  0  0  0
   -7.1953    1.1509    1.8359 F   0  0  0  0  0  0  0  0  0  0  0  0
   -5.5557   -0.2527    0.7967 C   0  0  0  0  0  0  0  0  0  0  0  0
   -4.5858   -0.4644   -0.1472 C   0  0  0  0  0  0  0  0  0  0  0  0
   -3.9099   -1.6384   -0.2585 F   0  0  0  0  0  0  0  0  0  0  0  0
   -1.0894   -0.0606   -2.5415 C   0  0  0  0  0  0  0  0  0  0  0  0
   -1.3967    0.0478   -3.7542 O   0  0  0  0  0  0  0  0  0  0  0  0
    0.1596   -0.3481   -2.1332 N   0  0  0  0  0  0  0  0  0  0  0  0
    1.2082   -0.5448   -3.1133 C   0  0  0  0  0  0  0  0  0  0  0  0
    0.4803   -0.4623   -0.8359 C   0  0  0  0  0  0  0  0  0  0  0  0
    1.7280   -0.7477   -0.4811 N   0  0  0  0  0  0  0  0  0  0  0  0
  1  2  1  0
  2  3  1  0
  2  4  1  0
  4  5  1  0
  5  6  1  0
  6  7  1  0
  7  8  2  0
  7  9  1  0
  9 10  1  0
 10 11  1  0
 11 12  1  0
 11 13  2  0
 15 14  1  1
 15 16  1  0
 16 17  1  0
 17 18  1  0
 18 19  2  0
 19 20  1  0
 20 21  2  0
 15 22  1  0
 22 23  1  0
 23 24  2  0
 24 25  1  0
 25 26  2  0
 26 27  1  0
 27 28  2  0
 28 29  1  0
 29 30  1  0
 30 31  2  0
 31 32  1  0
 32 33  2  0
 33 34  1  0
 33 35  1  0
 35 36  2  0
 36 37  1  0
 28 38  1  0
 38 39  2  0
 38 40  1  0
 40 41  1  0
 40 42  1  0
 42 43  2  0
 21 17  1  0
 43 23  1  0
 42 26  1  0
 36 30  1  0
M  RAD  1  12   2
M  END

