
     RDKit          3D

 44 46  0  0  0  0  0  0  0  0999 V2000
    4.2958   -2.5513    0.1506 C   0  0  0  0  0  0  0  0  0  0  0  0
    4.8524   -1.0715   -0.4166 C   0  0  2  0  0  0  0  0  0  0  0  0
    6.1055   -1.0574    0.6782 C   0  0  0  0  0  0  0  0  0  0  0  0
    6.7754    0.1936    0.3744 N   0  0  0  0  0  0  0  0  0  0  0  0
    6.5065    1.3529    0.9186 N   0  0  0  0  0  0  0  0  0  0  0  0
    7.3248    2.2844    0.3959 C   0  0  0  0  0  0  0  0  0  0  0  0
    8.1023    1.6515   -0.4865 N   0  0  0  0  0  0  0  0  0  0  0  0
    7.7453    0.3887   -0.4761 N   0  0  0  0  0  0  0  0  0  0  0  0
    3.8862   -0.2692    0.5483 N   0  0  0  0  0  0  0  0  0  0  0  0
    2.5054   -0.5454    0.3363 C   0  0  0  0  0  0  0  0  0  0  0  0
    2.0955   -1.4086   -0.6002 N   0  0  0  0  0  0  0  0  0  0  0  0
    0.7914   -1.6540   -0.7832 C   0  0  0  0  0  0  0  0  0  0  0  0
   -0.1767   -1.0265   -0.0136 C   0  0  0  0  0  0  0  0  0  0  0  0
   -1.5032   -1.2546   -0.1765 C   0  0  0  0  0  0  0  0  0  0  0  0
   -2.4992   -0.5976    0.6277 C   0  0  0  0  0  0  0  0  0  0  0  0
   -3.7492   -0.9389    0.3363 O   0  0  0  0  0  0  0  0  0  0  0  0
   -4.8333   -0.3208   -0.1508 C   0  0  0  0  0  0  0  0  0  0  0  0
   -5.2384   -0.7879   -1.4416 C   0  0  0  0  0  0  0  0  0  0  0  0
   -6.3069   -0.2984   -2.1060 C   0  0  0  0  0  0  0  0  0  0  0  0
   -7.0790    0.7166   -1.5337 C   0  0  0  0  0  0  0  0  0  0  0  0
   -8.1439    1.2009   -2.2034 F   0  0  0  0  0  0  0  0  0  0  0  0
   -6.7097    1.1740   -0.3048 C   0  0  0  0  0  0  0  0  0  0  0  0
   -5.6075    0.6642    0.3745 C   0  0  0  0  0  0  0  0  0  0  0  0
   -5.3703    1.1824    1.6189 F   0  0  0  0  0  0  0  0  0  0  0  0
   -1.9886    0.2579    1.5506 C   0  0  0  0  0  0  0  0  0  0  0  0
   -2.7543    0.8906    2.3189 O   0  0  0  0  0  0  0  0  0  0  0  0
   -0.6537    0.4774    1.7023 N   0  0  0  0  0  0  0  0  0  0  0  0
   -0.2021    1.4119    2.7162 C   0  0  0  0  0  0  0  0  0  0  0  0
    0.2516   -0.1421    0.9454 C   0  0  0  0  0  0  0  0  0  0  0  0
    1.5782    0.0768    1.0971 N   0  0  0  0  0  0  0  0  0  0  0  0
   -3.7849   -1.1770    1.4132 N   0  0  0  0  0  0  0  0  0  0  0  0
   -2.7448   -1.7798    0.6635 C   0  0  0  0  0  0  0  0  0  0  0  0
   -1.9194   -2.5174    1.2362 O   0  0  0  0  0  0  0  0  0  0  0  0
   -2.6390   -1.5379   -0.7790 C   0  0  0  0  0  0  0  0  0  0  0  0
   -1.4636   -2.2719   -1.3913 C   0  0  0  0  0  0  0  0  0  0  0  0
   -0.2135   -1.7662   -0.7020 C   0  0  0  0  0  0  0  0  0  0  0  0
   -0.1630   -0.3195   -0.9635 N   0  0  0  0  0  0  0  0  0  0  0  0
    0.9167    0.4333   -0.4323 C   0  0  0  0  0  0  0  0  0  0  0  0
    1.7824   -0.1722    0.2389 O   0  0  0  0  0  0  0  0  0  0  0  0
    1.0572    1.8810   -0.6369 C   0  0  0  0  0  0  0  0  0  0  0  0
    2.2607    2.4698    0.0194 C   0  0  0  0  0  0  0  0  0  0  0  0
    2.2659    2.2858    1.4925 C   0  0  0  0  0  0  0  0  0  0  0  0
    3.3364    2.7806    2.2324 O   0  0  0  0  0  1  0  0  0  0  0  0
    1.3088    1.6915    2.0294 O   0  0  0  0  0  0  0  0  0  0  0  0
  2  1  1  1
  2  3  1  0
  3  4  1  0
  4  5  1  0
  5  6  2  0
  6  7  1  0
  7  8  2  0
  2  9  1  0
  9 10  1  0
 10 11  2  0
 11 12  1  0
 12 13  2  0
 13 14  1  0
 14 15  2  0
 15 16  1  0
 16 17  1  0
 17 18  2  0
 18 19  1  0
 19 20  2  0
 20 21  1  0
 20 22  1  0
 22 23  2  0
 23 24  1  0
 15 25  1  0
 25 26  2  0
 25 27  1  0
 27 28  1  0
 27 29  1  0
 29 30  2  0
 31 32  1  0
 32 33  2  0
 32 34  1  0
 34 35  1  0
 35 36  1  0
 36 37  1  0
 37 38  1  0
 38 39  2  0
 38 40  1  0
 40 41  1  0
 41 42  1  0
 42 43  1  0
 42 44  2  0
  8  4  1  0
 30 10  1  0
 29 13  1  0
 23 17  1  0
M  RAD  1  43   2
M  END

