
     RDKit          3D

 45 47  0  0  0  0  0  0  0  0999 V2000
    5.8860   -2.3160    1.4507 C   0  0  0  0  0  0  0  0  0  0  0  0
    4.6162   -2.5301    0.4080 C   0  0  2  0  0  0  0  0  0  0  0  0
    5.2880   -1.6292   -0.7956 C   0  0  0  0  0  0  0  0  0  0  0  0
    5.5036   -0.3160   -0.3042 N   0  0  0  0  0  0  0  0  0  0  0  0
    6.5134    0.2569    0.3027 N   0  0  0  0  0  0  0  0  0  0  0  0
    6.2302    1.5428    0.5720 C   0  0  0  0  0  0  0  0  0  0  0  0
    4.9885    1.7644    0.1071 N   0  0  0  0  0  0  0  0  0  0  0  0
    4.5882    0.6414   -0.4057 N   0  0  0  0  0  0  0  0  0  0  0  0
    3.7678   -1.3397    1.0070 N   0  0  0  0  0  0  0  0  0  0  0  0
    2.5205   -1.1885    0.3340 C   0  0  0  0  0  0  0  0  0  0  0  0
    2.0947   -1.9343   -0.6706 N   0  0  0  0  0  0  0  0  0  0  0  0
    0.9101   -1.7732   -1.2928 C   0  0  0  0  0  0  0  0  0  0  0  0
    0.1075   -0.7491   -0.8252 C   0  0  0  0  0  0  0  0  0  0  0  0
   -1.1241   -0.5144   -1.4068 C   0  0  0  0  0  0  0  0  0  0  0  0
   -1.9061    0.5126   -0.9230 C   0  0  0  0  0  0  0  0  0  0  0  0
   -3.1166    0.7416   -1.4962 O   0  0  0  0  0  0  0  0  0  0  0  0
   -4.3424    0.6875   -0.8374 C   0  0  0  0  0  0  0  0  0  0  0  0
   -5.1853    1.7775   -0.7597 C   0  0  0  0  0  0  0  0  0  0  0  0
   -6.3935    1.6900   -0.0990 C   0  0  0  0  0  0  0  0  0  0  0  0
   -6.8231    0.5291    0.5123 C   0  0  0  0  0  0  0  0  0  0  0  0
   -8.0196    0.4670    1.1585 F   0  0  0  0  0  0  0  0  0  0  0  0
   -5.9802   -0.5617    0.4349 C   0  0  0  0  0  0  0  0  0  0  0  0
   -4.7703   -0.4732   -0.2271 C   0  0  0  0  0  0  0  0  0  0  0  0
   -3.9197   -1.5369   -0.3175 F   0  0  0  0  0  0  0  0  0  0  0  0
   -1.4686    1.2839    0.1140 C   0  0  0  0  0  0  0  0  0  0  0  0
   -2.1665    2.2284    0.5730 O   0  0  0  0  0  0  0  0  0  0  0  0
   -0.2695    1.0563    0.6811 N   0  0  0  0  0  0  0  0  0  0  0  0
    0.2560    1.8332    1.7814 C   0  0  0  0  0  0  0  0  0  0  0  0
    0.5046    0.0491    0.2114 C   0  0  0  0  0  0  0  0  0  0  0  0
    1.7100   -0.1997    0.7620 N   0  0  0  0  0  0  0  0  0  0  0  0
   -4.6129    1.6291    1.1350 N   0  0  0  0  0  4  0  0  0  0  0  0
   -4.2258    0.3429    0.5946 C   0  0  0  0  0  0  0  0  0  0  0  0
   -3.0238    0.4430   -0.2984 C   0  0  0  0  0  0  0  0  0  0  0  0
   -2.6987   -0.9419   -0.8105 C   0  0  0  0  0  0  0  0  0  0  0  0
   -2.3872   -1.9438    0.2182 C   0  0  0  0  0  0  0  0  0  0  0  0
   -1.2370   -1.7818    1.0996 C   0  0  0  0  0  0  0  0  0  0  0  0
    0.0731   -1.7648    0.5734 N   0  0  0  0  0  0  0  0  0  0  0  0
    0.6930   -0.9196   -0.3430 C   0  0  0  0  0  0  0  0  0  0  0  0
    0.0349    0.0175   -0.8305 O   0  0  0  0  0  0  0  0  0  0  0  0
    2.1324   -1.0951   -0.7682 C   0  0  0  0  0  0  0  0  0  0  0  0
    2.5033   -0.0294   -1.7440 C   0  0  0  0  0  0  0  0  0  0  0  0
    2.3626    1.3642   -1.1723 C   0  0  0  0  0  0  0  0  0  0  0  0
    3.2483    1.5218    0.0186 C   0  0  0  0  0  0  0  0  0  0  0  0
    2.6604    1.4198    1.2689 O   0  0  0  0  0  1  0  0  0  0  0  0
    4.4774    1.7382   -0.0831 O   0  0  0  0  0  0  0  0  0  0  0  0
  2  1  1  1
  2  3  1  0
  3  4  1  0
  4  5  1  0
  5  6  2  0
  6  7  1  0
  7  8  2  0
  2  9  1  0
  9 10  1  0
 10 11  2  0
 11 12  1  0
 12 13  2  0
 13 14  1  0
 14 15  2  0
 15 16  1  0
 16 17  1  0
 17 18  2  0
 18 19  1  0
 19 20  2  0
 20 21  1  0
 20 22  1  0
 22 23  2  0
 23 24  1  0
 15 25  1  0
 25 26  2  0
 25 27  1  0
 27 28  1  0
 27 29  1  0
 29 30  2  0
 31 32  1  0
 32 33  1  0
 33 34  1  0
 34 35  1  0
 35 36  1  0
 36 37  1  0
 37 38  1  0
 38 39  2  0
 38 40  1  0
 40 41  1  0
 41 42  1  0
 42 43  1  0
 43 44  1  0
 43 45  2  0
  8  4  1  0
 30 10  1  0
 29 13  1  0
 23 17  1  0
M  CHG  1  31   1
M  RAD  1  44   2
M  END

