
     RDKit          3D

 46 49  0  0  0  0  0  0  0  0999 V2000
    5.8712    1.2477   -1.8395 C   0  0  0  0  0  0  0  0  0  0  0  0
    4.2216    1.1762   -1.8214 C   0  0  2  0  0  0  0  0  0  0  0  0
    4.0600    2.0452   -0.4369 C   0  0  0  0  0  0  0  0  0  0  0  0
    4.7326    1.3768    0.6070 N   0  0  0  0  0  0  0  0  0  0  0  0
    6.0226    1.6024    0.8953 N   0  0  0  0  0  0  0  0  0  0  0  0
    6.3762    0.8356    1.9162 C   0  0  0  0  0  0  0  0  0  0  0  0
    5.2789    0.1305    2.2543 N   0  0  0  0  0  0  0  0  0  0  0  0
    4.2956    0.4652    1.4586 N   0  0  0  0  0  0  0  0  0  0  0  0
    4.1684   -0.2256   -1.1074 N   0  0  0  0  0  0  0  0  0  0  0  0
    2.8149   -0.6858   -0.8880 C   0  0  0  0  0  0  0  0  0  0  0  0
    2.5649   -1.8615   -0.2914 N   0  0  0  0  0  0  0  0  0  0  0  0
    1.3202   -2.3237   -0.0698 C   0  0  0  0  0  0  0  0  0  0  0  0
    0.2237   -1.5643   -0.4693 C   0  0  0  0  0  0  0  0  0  0  0  0
   -1.0676   -1.9698   -0.2771 C   0  0  0  0  0  0  0  0  0  0  0  0
   -2.1108   -1.1763   -0.6934 C   0  0  0  0  0  0  0  0  0  0  0  0
   -3.4464   -1.5434   -0.5213 O   0  0  0  0  0  0  0  0  0  0  0  0
   -4.3579   -0.8218    0.1979 C   0  0  0  0  0  0  0  0  0  0  0  0
   -5.4990   -0.3251   -0.3917 C   0  0  0  0  0  0  0  0  0  0  0  0
   -6.4187    0.3987    0.3185 C   0  0  0  0  0  0  0  0  0  0  0  0
   -6.2354    0.6634    1.6759 C   0  0  0  0  0  0  0  0  0  0  0  0
   -7.1812    1.3841    2.3194 F   0  0  0  0  0  0  0  0  0  0  0  0
   -5.1053    0.1774    2.2816 C   0  0  0  0  0  0  0  0  0  0  0  0
   -4.1955   -0.5444    1.5576 C   0  0  0  0  0  0  0  0  0  0  0  0
   -3.0800   -1.0251    2.1523 F   0  0  0  0  0  0  0  0  0  0  0  0
   -1.8233    0.0264   -1.3033 C   0  0  0  0  0  0  0  0  0  0  0  0
   -2.8007    0.7489   -1.6827 O   0  0  0  0  0  0  0  0  0  0  0  0
   -0.5460    0.4158   -1.4875 N   0  0  0  0  0  0  0  0  0  0  0  0
   -0.2970    1.7075   -2.1432 C   0  0  0  0  0  0  0  0  0  0  0  0
    0.4761   -0.3594   -1.0808 C   0  0  0  0  0  0  0  0  0  0  0  0
    1.7379    0.0245   -1.2622 N   0  0  0  0  0  0  0  0  0  0  0  0
    4.7094   -2.1179    2.8965 N   0  0  0  0  0  0  0  0  0  0  0  0
    3.8514   -1.3737    2.0293 C   0  0  0  0  0  0  0  0  0  0  0  0
    3.4370   -0.2657    2.4575 O   0  0  0  0  0  0  0  0  0  0  0  0
    3.4739   -1.8983    0.6836 C   0  0  0  0  0  0  0  0  0  0  0  0
    2.5663   -0.8857    0.0219 C   0  0  0  0  0  0  0  0  0  0  0  0
    1.3570   -0.6814    0.8351 N   0  0  0  0  0  0  0  0  0  0  0  0
    0.3485    0.2202    0.4309 C   0  0  0  0  0  0  0  0  0  0  0  0
    0.5571    0.8270   -0.6598 O   0  0  0  0  0  0  0  0  0  0  0  0
   -0.8832    0.4784    1.1850 C   0  0  0  0  0  0  0  0  0  0  0  0
   -1.8166    1.4540    0.5690 C   0  0  0  0  0  0  0  0  0  0  0  0
   -2.3334    1.1061   -0.7585 C   0  0  0  0  0  0  0  0  0  0  0  0
   -1.7780    1.4385   -1.9650 C   0  0  0  0  0  0  0  0  0  0  0  0
   -2.3580    1.0526   -3.1636 C   0  0  0  0  0  0  0  0  0  0  0  0
   -3.5199    0.3170   -3.1881 C   0  0  0  0  0  0  0  0  0  0  0  0
   -4.0966   -0.0290   -1.9846 C   0  0  0  0  0  0  0  0  0  0  0  0
   -3.5147    0.3579   -0.7980 C   0  0  0  0  0  0  0  0  0  0  0  0
  2  1  1  1
  2  3  1  0
  3  4  1  0
  4  5  1  0
  5  6  2  0
  6  7  1  0
  7  8  2  0
  2  9  1  0
  9 10  1  0
 10 11  2  0
 11 12  1  0
 12 13  2  0
 13 14  1  0
 14 15  2  0
 15 16  1  0
 16 17  1  0
 17 18  2  0
 18 19  1  0
 19 20  2  0
 20 21  1  0
 20 22  1  0
 22 23  2  0
 23 24  1  0
 15 25  1  0
 25 26  2  0
 25 27  1  0
 27 28  1  0
 27 29  1  0
 29 30  2  0
 31 32  1  0
 32 33  2  0
 32 34  1  0
 34 35  1  0
 35 36  1  0
 36 37  1  0
 37 38  2  0
 37 39  1  0
 39 40  1  0
 40 41  1  0
 41 42  2  0
 42 43  1  0
 43 44  2  0
 44 45  1  0
 45 46  2  0
  8  4  1  0
 30 10  1  0
 46 41  1  0
 29 13  1  0
 23 17  1  0
M  END

