
     RDKit          3D

 42 44  0  0  0  0  0  0  0  0999 V2000
   -4.3293   -2.3474   -0.9650 C   0  0  0  0  0  0  0  0  0  0  0  0
   -4.9406   -1.9370    0.5080 C   0  0  2  0  0  0  0  0  0  0  0  0
   -4.8737   -0.3231    0.2119 C   0  0  0  0  0  0  0  0  0  0  0  0
   -5.7165   -0.1263   -0.9428 N   0  0  0  0  0  0  0  0  0  0  0  0
   -7.0115    0.1340   -1.0103 N   0  0  0  0  0  0  0  0  0  0  0  0
   -7.3814    0.2393   -2.2833 C   0  0  0  0  0  0  0  0  0  0  0  0
   -6.2810    0.0382   -3.0413 N   0  0  0  0  0  0  0  0  0  0  0  0
   -5.2976   -0.1795   -2.1823 N   0  0  0  0  0  0  0  0  0  0  0  0
   -3.5636   -2.0089    1.2421 N   0  0  0  0  0  0  0  0  0  0  0  0
   -2.4973   -1.2277    0.8294 C   0  0  0  0  0  0  0  0  0  0  0  0
   -2.6126   -0.3756   -0.2250 N   0  0  0  0  0  0  0  0  0  0  0  0
   -1.5976    0.3956   -0.6502 C   0  0  0  0  0  0  0  0  0  0  0  0
   -0.3993    0.3149    0.0110 C   0  0  0  0  0  0  0  0  0  0  0  0
    0.7086    1.0825   -0.3661 C   0  0  0  0  0  0  0  0  0  0  0  0
    1.8748    0.9350    0.3583 C   0  0  0  0  0  0  0  0  0  0  0  0
    2.9756    1.6571    0.0312 O   0  0  0  0  0  0  0  0  0  0  0  0
    4.2033    1.1761   -0.3480 C   0  0  0  0  0  0  0  0  0  0  0  0
    4.5086   -0.1650   -0.4560 C   0  0  0  0  0  0  0  0  0  0  0  0
    5.7695   -0.5660   -0.8444 C   0  0  0  0  0  0  0  0  0  0  0  0
    6.7770    0.3296   -1.1411 C   0  0  0  0  0  0  0  0  0  0  0  0
    8.0169   -0.0831   -1.5233 F   0  0  0  0  0  0  0  0  0  0  0  0
    6.4541    1.6666   -1.0278 C   0  0  0  0  0  0  0  0  0  0  0  0
    5.1964    2.0895   -0.6402 C   0  0  0  0  0  0  0  0  0  0  0  0
    4.9069    3.4317   -0.5370 F   0  0  0  0  0  0  0  0  0  0  0  0
    1.9226    0.0526    1.4164 C   0  0  0  0  0  0  0  0  0  0  0  0
    2.9885   -0.0553    2.0469 O   0  0  0  0  0  0  0  0  0  0  0  0
    0.8723   -0.6854    1.7859 N   0  0  0  0  0  0  0  0  0  0  0  0
    0.9434   -1.6149    2.9104 C   0  0  0  0  0  0  0  0  0  0  0  0
   -0.2911   -0.5514    1.0787 C   0  0  0  0  0  0  0  0  0  0  0  0
   -1.3254   -1.2959    1.4636 N   0  0  0  0  0  0  0  0  0  0  0  0
    3.1386    1.3675    1.7984 O   0  0  0  0  0  1  0  0  0  0  0  0
    2.6548    0.7583    0.6610 C   0  0  0  0  0  0  0  0  0  0  0  0
    2.4841    1.4289   -0.3755 O   0  0  0  0  0  0  0  0  0  0  0  0
    2.3496   -0.6841    0.7029 C   0  0  0  0  0  0  0  0  0  0  0  0
    1.8350   -1.1161   -0.6615 C   0  0  0  0  0  0  0  0  0  0  0  0
    0.5922   -0.3027   -0.9301 C   0  0  0  0  0  0  0  0  0  0  0  0
   -0.3809   -0.6076    0.1485 C   0  0  0  0  0  0  0  0  0  0  0  0
   -0.1452   -1.4091    1.0853 O   0  0  0  0  0  0  0  0  0  0  0  0
   -1.6355    0.0560    0.0931 N   0  0  0  0  0  0  0  0  0  0  0  0
   -2.6053   -0.2184    1.1276 C   0  0  0  0  0  0  0  0  0  0  0  0
   -3.8795    0.5522    0.9390 C   0  0  0  0  0  0  0  0  0  0  0  0
   -4.4079    0.1750   -0.2991 O   0  0  0  0  0  0  0  0  0  0  0  0
  2  1  1  6
  2  3  1  0
  3  4  1  0
  4  5  1  0
  5  6  2  0
  6  7  1  0
  7  8  2  0
  2  9  1  0
  9 10  1  0
 10 11  2  0
 11 12  1  0
 12 13  2  0
 13 14  1  0
 14 15  2  0
 15 16  1  0
 16 17  1  0
 17 18  2  0
 18 19  1  0
 19 20  2  0
 20 21  1  0
 20 22  1  0
 22 23  2  0
 23 24  1  0
 15 25  1  0
 25 26  2  0
 25 27  1  0
 27 28  1  0
 27 29  1  0
 29 30  2  0
 31 32  1  0
 32 33  2  0
 32 34  1  0
 34 35  1  0
 35 36  1  0
 36 37  1  0
 37 38  2  0
 37 39  1  0
 39 40  1  0
 40 41  1  0
 41 42  1  0
  8  4  1  0
 30 10  1  0
 29 13  1  0
 23 17  1  0
M  RAD  1  31   2
M  END

