
     RDKit          3D

 46 49  0  0  0  0  0  0  0  0999 V2000
    5.8817    1.6040    0.4539 C   0  0  0  0  0  0  0  0  0  0  0  0
    5.6844    0.2159   -0.1008 C   0  0  0  0  0  0  0  0  0  0  0  0
    4.3296   -0.3550    0.6570 C   0  0  2  0  0  0  0  0  0  0  0  0
    4.3957   -1.7978   -0.1294 C   0  0  0  0  0  0  0  0  0  0  0  0
    3.3212    0.3086   -0.4586 C   0  0  0  0  0  0  0  0  0  0  0  0
    2.0083   -0.1058    0.0616 N   0  0  0  0  0  0  0  0  0  0  0  0
    0.8363    0.2707   -0.6258 C   0  0  0  0  0  0  0  0  0  0  0  0
    0.9114    0.9479   -1.6640 O   0  0  0  0  0  0  0  0  0  0  0  0
   -0.4819   -0.1332   -0.1223 C   0  0  0  0  0  0  0  0  0  0  0  0
   -1.5435    0.3865   -1.0206 C   0  0  0  0  0  0  0  0  0  0  0  0
   -2.9071    0.0403   -0.6102 C   0  0  0  0  0  0  0  0  0  0  0  0
   -3.5853    0.9033    0.2369 C   0  0  0  0  0  0  0  0  0  0  0  0
   -4.8713    0.6448    0.6662 C   0  0  0  0  0  0  0  0  0  0  0  0
   -5.5324   -0.4924    0.2631 C   0  0  0  0  0  0  0  0  0  0  0  0
   -4.8585   -1.3487   -0.5778 C   0  0  0  0  0  0  0  0  0  0  0  0
   -3.5885   -1.0890   -0.9991 C   0  0  0  0  0  0  0  0  0  0  0  0
    5.5667    2.1592   -1.1032 C   0  0  0  0  0  0  0  0  0  0  0  0
    4.5996    1.4389    0.0445 C   0  0  2  0  0  0  0  0  0  0  0  0
    5.1315   -0.0927   -0.3132 C   0  0  0  0  0  0  0  0  0  0  0  0
    6.5522   -0.0532   -0.0669 N   0  0  0  0  0  0  0  0  0  0  0  0
    7.2689   -0.2940    0.9937 N   0  0  0  0  0  0  0  0  0  0  0  0
    8.5745   -0.1148    0.7067 C   0  0  0  0  0  0  0  0  0  0  0  0
    8.6529    0.2447   -0.5632 N   0  0  0  0  0  0  0  0  0  0  0  0
    7.4121    0.2772   -1.0189 N   0  0  0  0  0  0  0  0  0  0  0  0
    3.3805    1.3339   -0.9595 N   0  0  0  0  0  0  0  0  0  0  0  0
    2.2142    0.7372   -0.4056 C   0  0  0  0  0  0  0  0  0  0  0  0
    2.0998    0.2839    0.8533 N   0  0  0  0  0  0  0  0  0  0  0  0
    0.9687   -0.2739    1.3269 C   0  0  0  0  0  0  0  0  0  0  0  0
   -0.1490   -0.4115    0.5325 C   0  0  0  0  0  0  0  0  0  0  0  0
   -1.3206   -0.9842    1.0074 C   0  0  0  0  0  0  0  0  0  0  0  0
   -2.3791   -1.0736    0.1305 C   0  0  0  0  0  0  0  0  0  0  0  0
   -3.5435   -1.6319    0.5690 O   0  0  0  0  0  0  0  0  0  0  0  0
   -4.7727   -1.0443    0.6241 C   0  0  0  0  0  0  0  0  0  0  0  0
   -5.8287   -1.5804   -0.0822 C   0  0  0  0  0  0  0  0  0  0  0  0
   -7.0815   -0.9802   -0.0252 C   0  0  0  0  0  0  0  0  0  0  0  0
   -7.2776    0.1522    0.7356 C   0  0  0  0  0  0  0  0  0  0  0  0
   -8.4842    0.7636    0.8147 F   0  0  0  0  0  0  0  0  0  0  0  0
   -6.2198    0.6981    1.4495 C   0  0  0  0  0  0  0  0  0  0  0  0
   -4.9880    0.0712    1.3668 C   0  0  0  0  0  0  0  0  0  0  0  0
   -3.9629    0.6066    2.0633 F   0  0  0  0  0  0  0  0  0  0  0  0
   -2.2529   -0.6015   -1.1731 C   0  0  0  0  0  0  0  0  0  0  0  0
   -3.1941   -0.6664   -1.9972 O   0  0  0  0  0  0  0  0  0  0  0  0
   -1.0928   -0.0560   -1.5775 N   0  0  0  0  0  0  0  0  0  0  0  0
   -0.9823    0.4262   -2.9287 C   0  0  0  0  0  0  0  0  0  0  0  0
   -0.0263    0.0554   -0.7589 C   0  0  0  0  0  0  0  0  0  0  0  0
    1.1344    0.6100   -1.1903 N   0  0  0  0  0  0  0  0  0  0  0  0
  1  2  1  0
  2  3  1  0
  3  4  1  6
  3  5  1  0
  5  6  1  0
  6  7  1  0
  7  8  2  0
  7  9  1  0
  9 10  1  0
 10 11  1  0
 11 12  2  0
 12 13  1  0
 13 14  2  0
 14 15  1  0
 15 16  2  0
 18 17  1  6
 18 19  1  0
 19 20  1  0
 20 21  1  0
 21 22  2  0
 22 23  1  0
 23 24  2  0
 18 25  1  0
 25 26  1  0
 26 27  2  0
 27 28  1  0
 28 29  2  0
 29 30  1  0
 30 31  2  0
 31 32  1  0
 32 33  1  0
 33 34  2  0
 34 35  1  0
 35 36  2  0
 36 37  1  0
 36 38  1  0
 38 39  2  0
 39 40  1  0
 31 41  1  0
 41 42  2  0
 41 43  1  0
 43 44  1  0
 43 45  1  0
 45 46  2  0
 16 11  1  0
 24 20  1  0
 46 26  1  0
 45 29  1  0
 39 33  1  0
M  END

