
     RDKit          3D

 40 42  0  0  0  0  0  0  0  0999 V2000
   -3.6627   -0.0732   -0.4134 C   0  0  0  0  0  0  0  0  0  0  0  0
   -2.9013    1.2348   -0.3772 C   0  0  0  0  0  0  0  0  0  0  0  0
   -1.7757    1.1824    0.5351 N   0  0  0  0  0  0  0  0  0  0  0  0
   -0.7119    0.2533    0.3789 C   0  0  0  0  0  0  0  0  0  0  0  0
   -0.7419   -0.5535   -0.5812 O   0  0  0  0  0  0  0  0  0  0  0  0
    0.4022    0.2720    1.3636 C   0  0  0  0  0  0  0  0  0  0  0  0
    1.4422   -0.7607    1.0671 C   0  0  0  0  0  0  0  0  0  0  0  0
    2.0849   -0.5854   -0.2923 C   0  0  0  0  0  0  0  0  0  0  0  0
    2.7730    0.7344   -0.4520 C   0  0  0  0  0  0  0  0  0  0  0  0
    3.0911   -1.7042   -0.4612 C   0  0  0  0  0  0  0  0  0  0  0  0
    4.4223    3.0078   -0.8116 C   0  0  0  0  0  0  0  0  0  0  0  0
    5.2620    1.7939   -0.0893 C   0  0  2  0  0  0  0  0  0  0  0  0
    4.8132    0.6702   -1.1952 C   0  0  0  0  0  0  0  0  0  0  0  0
    5.4739   -0.5614   -0.7391 N   0  0  0  0  0  0  0  0  0  0  0  0
    4.9379   -1.4182    0.0863 N   0  0  0  0  0  0  0  0  0  0  0  0
    5.8005   -2.4076    0.2833 C   0  0  0  0  0  0  0  0  0  0  0  0
    6.8947   -2.1383   -0.4483 N   0  0  0  0  0  0  0  0  0  0  0  0
    6.6751   -1.0043   -1.0667 N   0  0  0  0  0  0  0  0  0  0  0  0
    4.1361    1.4492    0.9349 N   0  0  0  0  0  0  0  0  0  0  0  0
    2.8699    1.0812    0.5023 C   0  0  0  0  0  0  0  0  0  0  0  0
    2.5544    1.0046   -0.8250 N   0  0  0  0  0  0  0  0  0  0  0  0
    1.3508    0.6552   -1.2699 C   0  0  0  0  0  0  0  0  0  0  0  0
    0.3419    0.3465   -0.3681 C   0  0  0  0  0  0  0  0  0  0  0  0
   -0.9125   -0.0181   -0.7355 C   0  0  0  0  0  0  0  0  0  0  0  0
   -1.9102   -0.3240    0.2534 C   0  0  0  0  0  0  0  0  0  0  0  0
   -3.1088   -0.6727   -0.1508 O   0  0  0  0  0  0  0  0  0  0  0  0
   -4.4030   -0.4985   -0.2445 C   0  0  0  0  0  0  0  0  0  0  0  0
   -4.9674   -0.2933   -1.5537 C   0  0  0  0  0  0  0  0  0  0  0  0
   -6.2932   -0.1057   -1.7424 C   0  0  0  0  0  0  0  0  0  0  0  0
   -7.1715   -0.1018   -0.6875 C   0  0  0  0  0  0  0  0  0  0  0  0
   -8.4692    0.0907   -0.9401 F   0  0  0  0  0  0  0  0  0  0  0  0
   -6.6877   -0.2927    0.5751 C   0  0  0  0  0  0  0  0  0  0  0  0
   -5.3056   -0.4868    0.7544 C   0  0  0  0  0  0  0  0  0  0  0  0
   -4.9799   -0.6839    2.0492 F   0  0  0  0  0  0  0  0  0  0  0  0
   -1.4928   -0.2181    1.5502 C   0  0  0  0  0  0  0  0  0  0  0  0
   -2.2768   -0.4645    2.5349 O   0  0  0  0  0  0  0  0  0  0  0  0
   -0.2305    0.1494    1.9088 N   0  0  0  0  0  0  0  0  0  0  0  0
    0.0898    0.2258    3.3281 C   0  0  0  0  0  0  0  0  0  0  0  0
    0.6743    0.4280    0.9635 C   0  0  0  0  0  0  0  0  0  0  0  0
    1.9123    0.7879    1.3801 N   0  0  0  0  0  0  0  0  0  0  0  0
  1  2  1  0
  2  3  1  0
  3  4  1  0
  4  5  2  0
  4  6  1  0
  6  7  1  0
  7  8  1  0
  8  9  1  0
  8 10  1  0
 12 11  1  6
 12 13  1  0
 13 14  1  0
 14 15  1  0
 15 16  2  0
 16 17  1  0
 17 18  2  0
 12 19  1  0
 19 20  1  0
 20 21  2  0
 21 22  1  0
 22 23  2  0
 23 24  1  0
 24 25  2  0
 25 26  1  0
 26 27  1  0
 27 28  2  0
 28 29  1  0
 29 30  2  0
 30 31  1  0
 30 32  1  0
 32 33  2  0
 33 34  1  0
 25 35  1  0
 35 36  2  0
 35 37  1  0
 37 38  1  0
 37 39  1  0
 39 40  2  0
 18 14  1  0
 40 20  1  0
 39 23  1  0
 33 27  1  0
M  END

