
     RDKit          3D

 42 44  0  0  0  0  0  0  0  0999 V2000
    4.0606   -1.6232    0.0145 C   0  0  0  0  0  0  0  0  0  0  0  0
    3.8573   -0.1200    0.1074 C   0  0  0  0  0  0  0  0  0  0  0  0
    2.7458    0.1965   -1.0387 C   0  0  2  0  0  0  0  0  0  0  0  0
    2.7352    1.8029   -0.7141 C   0  0  0  0  0  0  0  0  0  0  0  0
    1.4868   -0.1006   -0.0334 C   0  0  0  0  0  0  0  0  0  0  0  0
    0.3674    0.1465   -0.9361 N   0  0  0  0  0  0  0  0  0  0  0  0
   -0.9723    0.0088   -0.4935 C   0  0  0  0  0  0  0  0  0  0  0  0
   -1.1461   -0.3320    0.6988 O   0  0  0  0  0  0  0  0  0  0  0  0
   -2.0630    0.2739   -1.4588 C   0  0  0  0  0  0  0  0  0  0  0  0
   -3.3765    0.0816   -0.8232 C   0  0  0  0  0  0  0  0  0  0  0  0
   -3.7056    0.9186    0.3404 C   0  0  0  0  0  0  0  0  0  0  0  0
   -3.9895   -1.2530   -0.9046 C   0  0  0  0  0  0  0  0  0  0  0  0
    4.3629   -2.4139   -0.5627 C   0  0  0  0  0  0  0  0  0  0  0  0
    4.7836   -0.8435   -0.9933 C   0  0  2  0  0  0  0  0  0  0  0  0
    6.0447   -0.8243    0.0896 C   0  0  0  0  0  0  0  0  0  0  0  0
    6.5816    0.5088   -0.1201 N   0  0  0  0  0  0  0  0  0  0  0  0
    6.2619    1.6223    0.4798 N   0  0  0  0  0  0  0  0  0  0  0  0
    7.0071    2.6267   -0.0217 C   0  0  0  0  0  0  0  0  0  0  0  0
    7.7913    2.0544   -0.9553 N   0  0  0  0  0  0  0  0  0  0  0  0
    7.5249    0.7628   -1.0082 N   0  0  0  0  0  0  0  0  0  0  0  0
    3.7682   -0.2219    0.0596 N   0  0  0  0  0  0  0  0  0  0  0  0
    2.4155   -0.6184   -0.1945 C   0  0  0  0  0  0  0  0  0  0  0  0
    2.0364   -1.4129   -1.1906 N   0  0  0  0  0  0  0  0  0  0  0  0
    0.7392   -1.7322   -1.3519 C   0  0  0  0  0  0  0  0  0  0  0  0
   -0.2561   -1.2581   -0.5026 C   0  0  0  0  0  0  0  0  0  0  0  0
   -1.5851   -1.5964   -0.6830 C   0  0  0  0  0  0  0  0  0  0  0  0
   -2.5005   -1.0625    0.2304 C   0  0  0  0  0  0  0  0  0  0  0  0
   -3.8477   -1.3624    0.1056 O   0  0  0  0  0  0  0  0  0  0  0  0
   -4.8426   -0.4404   -0.0881 C   0  0  0  0  0  0  0  0  0  0  0  0
   -5.8433   -0.3597    0.8583 C   0  0  0  0  0  0  0  0  0  0  0  0
   -6.8364    0.5678    0.6552 C   0  0  0  0  0  0  0  0  0  0  0  0
   -6.8875    1.4030   -0.4167 C   0  0  0  0  0  0  0  0  0  0  0  0
   -7.8978    2.2746   -0.5263 F   0  0  0  0  0  0  0  0  0  0  0  0
   -5.8614    1.3016   -1.3620 C   0  0  0  0  0  0  0  0  0  0  0  0
   -4.8513    0.3837   -1.1899 C   0  0  0  0  0  0  0  0  0  0  0  0
   -3.8462    0.2592   -2.0818 F   0  0  0  0  0  0  0  0  0  0  0  0
   -2.0526   -0.2539    1.2310 C   0  0  0  0  0  0  0  0  0  0  0  0
   -2.8601    0.2476    2.0780 O   0  0  0  0  0  0  0  0  0  0  0  0
   -0.7476    0.0555    1.3773 N   0  0  0  0  0  0  0  0  0  0  0  0
   -0.2654    0.9163    2.4414 C   0  0  0  0  0  0  0  0  0  0  0  0
    0.1719   -0.4346    0.5223 C   0  0  0  0  0  0  0  0  0  0  0  0
    1.4924   -0.1494    0.6327 N   0  0  0  0  0  0  0  0  0  0  0  0
  1  2  1  0
  2  3  1  0
  3  4  1  1
  3  5  1  0
  5  6  1  0
  6  7  1  0
  7  8  2  0
  7  9  1  0
  9 10  1  0
 10 11  1  0
 10 12  1  0
 14 13  1  1
 14 15  1  0
 15 16  1  0
 16 17  1  0
 17 18  2  0
 18 19  1  0
 19 20  2  0
 14 21  1  0
 21 22  1  0
 22 23  2  0
 23 24  1  0
 24 25  2  0
 25 26  1  0
 26 27  2  0
 27 28  1  0
 28 29  1  0
 29 30  2  0
 30 31  1  0
 31 32  2  0
 32 33  1  0
 32 34  1  0
 34 35  2  0
 35 36  1  0
 27 37  1  0
 37 38  2  0
 37 39  1  0
 39 40  1  0
 39 41  1  0
 41 42  2  0
 20 16  1  0
 42 22  1  0
 41 25  1  0
 35 29  1  0
M  END

