
     RDKit          3D

 43 45  0  0  0  0  0  0  0  0999 V2000
   -3.0897   -1.7549   -0.6126 C   0  0  0  0  0  0  0  0  0  0  0  0
   -2.7774   -0.9136    0.5667 C   0  0  0  0  0  0  0  0  0  0  0  0
   -2.8112    0.6488    0.1645 C   0  0  2  0  0  0  0  0  0  0  0  0
   -4.3591    0.6358   -0.3142 C   0  0  0  0  0  0  0  0  0  0  0  0
   -2.2078    0.4434   -1.3203 C   0  0  0  0  0  0  0  0  0  0  0  0
   -0.9030   -0.1561   -1.1522 N   0  0  0  0  0  0  0  0  0  0  0  0
    0.1537    0.4389   -0.4411 C   0  0  0  0  0  0  0  0  0  0  0  0
   -0.0377    1.5588    0.0834 O   0  0  0  0  0  0  0  0  0  0  0  0
    1.4402   -0.3007   -0.3542 C   0  0  0  0  0  0  0  0  0  0  0  0
    2.4176    0.5037    0.4389 C   0  0  0  0  0  0  0  0  0  0  0  0
    3.7476   -0.1984    0.5619 C   0  0  0  0  0  0  0  0  0  0  0  0
    3.6097   -1.5179    1.2391 C   0  0  0  0  0  0  0  0  0  0  0  0
    4.8171    0.6603    1.1402 C   0  0  0  0  0  0  0  0  0  0  0  0
    6.4671    1.8899   -0.4706 C   0  0  0  0  0  0  0  0  0  0  0  0
    5.0790    1.5329   -1.2942 C   0  0  1  0  0  0  0  0  0  0  0  0
    5.4289   -0.0652   -1.4134 C   0  0  0  0  0  0  0  0  0  0  0  0
    5.5465   -0.4820   -0.0471 N   0  0  0  0  0  0  0  0  0  0  0  0
    6.6953   -0.4493    0.6178 N   0  0  0  0  0  0  0  0  0  0  0  0
    6.4302   -0.9035    1.8409 C   0  0  0  0  0  0  0  0  0  0  0  0
    5.1315   -1.2173    1.9427 N   0  0  0  0  0  0  0  0  0  0  0  0
    4.6052   -0.9506    0.7698 N   0  0  0  0  0  0  0  0  0  0  0  0
    4.2012    1.4081   -0.0087 N   0  0  0  0  0  0  0  0  0  0  0  0
    2.8564    1.0968   -0.2491 C   0  0  0  0  0  0  0  0  0  0  0  0
    2.4126    0.9299   -1.5070 N   0  0  0  0  0  0  0  0  0  0  0  0
    1.1260    0.6322   -1.7539 C   0  0  0  0  0  0  0  0  0  0  0  0
    0.1875    0.4803   -0.7416 C   0  0  0  0  0  0  0  0  0  0  0  0
   -1.1214    0.1802   -0.9773 C   0  0  0  0  0  0  0  0  0  0  0  0
   -2.0703    0.0311    0.0854 C   0  0  0  0  0  0  0  0  0  0  0  0
   -3.3048   -0.2539   -0.1859 O   0  0  0  0  0  0  0  0  0  0  0  0
   -4.5106   -0.5325   -0.4508 C   0  0  0  0  0  0  0  0  0  0  0  0
   -4.9306   -0.6966   -1.7964 C   0  0  0  0  0  0  0  0  0  0  0  0
   -6.2259   -0.9939   -2.0447 C   0  0  0  0  0  0  0  0  0  0  0  0
   -7.1592   -1.1453   -1.0454 C   0  0  0  0  0  0  0  0  0  0  0  0
   -8.4311   -1.4416   -1.3705 F   0  0  0  0  0  0  0  0  0  0  0  0
   -6.7752   -0.9912    0.2636 C   0  0  0  0  0  0  0  0  0  0  0  0
   -5.4659   -0.6882    0.5590 C   0  0  0  0  0  0  0  0  0  0  0  0
   -5.0652   -0.5314    1.8540 F   0  0  0  0  0  0  0  0  0  0  0  0
   -1.5145    0.2219    1.3345 C   0  0  0  0  0  0  0  0  0  0  0  0
   -2.2841    0.1092    2.3511 O   0  0  0  0  0  0  0  0  0  0  0  0
   -0.2197    0.5175    1.5442 N   0  0  0  0  0  0  0  0  0  0  0  0
    0.3092    0.7086    2.9020 C   0  0  0  0  0  0  0  0  0  0  0  0
    0.6565    0.6541    0.5410 C   0  0  0  0  0  0  0  0  0  0  0  0
    1.9451    0.9499    0.7465 N   0  0  0  0  0  0  0  0  0  0  0  0
  1  2  1  0
  2  3  1  0
  3  4  1  6
  3  5  1  0
  5  6  1  0
  6  7  1  0
  7  8  2  0
  7  9  1  0
  9 10  1  0
 10 11  1  0
 11 12  1  0
 11 13  1  0
 15 14  1  6
 15 16  1  0
 16 17  1  0
 17 18  1  0
 18 19  2  0
 19 20  1  0
 20 21  2  0
 15 22  1  0
 22 23  1  0
 23 24  2  0
 24 25  1  0
 25 26  2  0
 26 27  1  0
 27 28  2  0
 28 29  1  0
 29 30  1  0
 30 31  2  0
 31 32  1  0
 32 33  2  0
 33 34  1  0
 33 35  1  0
 35 36  2  0
 36 37  1  0
 28 38  1  0
 38 39  2  0
 38 40  1  0
 40 41  1  0
 40 42  1  0
 42 43  2  0
 21 17  1  0
 43 23  1  0
 42 26  1  0
 36 30  1  0
M  END

