
     RDKit          3D

 44 46  0  0  0  0  0  0  0  0999 V2000
    2.1732    1.7493   -0.8745 C   0  0  0  0  0  0  0  0  0  0  0  0
    2.5595    0.2727   -0.8489 C   0  0  0  0  0  0  0  0  0  0  0  0
    3.6802    0.0149   -1.8512 C   0  0  0  0  0  0  0  0  0  0  0  0
    3.1018   -0.0606    0.5223 C   0  0  0  0  0  0  0  0  0  0  0  0
    2.0380    0.2126    1.5623 C   0  0  0  0  0  0  0  0  0  0  0  0
    0.8703   -0.6210    1.2736 C   0  0  0  0  0  0  0  0  0  0  0  0
    0.8077   -1.4189    0.3077 O   0  0  0  0  0  0  0  0  0  0  0  0
   -0.2624   -0.5340    2.1240 N   0  0  0  0  0  0  0  0  0  0  0  0
   -1.4428   -1.3200    1.9038 C   0  0  0  0  0  0  0  0  0  0  0  0
   -1.9972   -0.9816    0.5467 C   0  0  0  0  0  0  0  0  0  0  0  0
   -2.3660    0.4677    0.4107 C   0  0  0  0  0  0  0  0  0  0  0  0
   -2.8967    0.7121   -0.9380 C   0  0  0  0  0  0  0  0  0  0  0  0
   -2.9785   -0.3461   -1.8313 O   0  0  0  0  0  1  0  0  0  0  0  0
   -3.2873    1.8530   -1.3294 O   0  0  0  0  0  0  0  0  0  0  0  0
    5.6432   -0.3084    1.7608 C   0  0  0  0  0  0  0  0  0  0  0  0
    4.5494   -0.8900    0.6256 C   0  0  2  0  0  0  0  0  0  0  0  0
    4.9933    0.2357   -0.5351 C   0  0  0  0  0  0  0  0  0  0  0  0
    6.3691    0.0272   -0.7891 N   0  0  0  0  0  0  0  0  0  0  0  0
    6.9736   -0.7521   -1.6651 N   0  0  0  0  0  0  0  0  0  0  0  0
    8.3075   -0.5987   -1.5160 C   0  0  0  0  0  0  0  0  0  0  0  0
    8.5143    0.2794   -0.5433 N   0  0  0  0  0  0  0  0  0  0  0  0
    7.3204    0.6521   -0.1098 N   0  0  0  0  0  0  0  0  0  0  0  0
    3.4035    0.0603    1.1757 N   0  0  0  0  0  0  0  0  0  0  0  0
    2.1652   -0.0882    0.4592 C   0  0  0  0  0  0  0  0  0  0  0  0
    1.9993   -0.9384   -0.5629 N   0  0  0  0  0  0  0  0  0  0  0  0
    0.8083   -1.0205   -1.1841 C   0  0  0  0  0  0  0  0  0  0  0  0
   -0.2231   -0.2165   -0.7462 C   0  0  0  0  0  0  0  0  0  0  0  0
   -1.4813   -0.2646   -1.3596 C   0  0  0  0  0  0  0  0  0  0  0  0
   -2.4558    0.5721   -0.8599 C   0  0  0  0  0  0  0  0  0  0  0  0
   -3.7193    0.5423   -1.4551 O   0  0  0  0  0  0  0  0  0  0  0  0
   -4.8095    0.1935   -0.6375 C   0  0  0  0  0  0  0  0  0  0  0  0
   -5.8428    1.0810   -0.4649 C   0  0  0  0  0  0  0  0  0  0  0  0
   -6.9416    0.7726    0.3378 C   0  0  0  0  0  0  0  0  0  0  0  0
   -6.9663   -0.4585    0.9610 C   0  0  0  0  0  0  0  0  0  0  0  0
   -8.0366   -0.7436    1.7352 F   0  0  0  0  0  0  0  0  0  0  0  0
   -5.9472   -1.3746    0.8109 C   0  0  0  0  0  0  0  0  0  0  0  0
   -4.8651   -1.0270   -0.0013 C   0  0  0  0  0  0  0  0  0  0  0  0
   -3.8849   -1.9405   -0.1296 F   0  0  0  0  0  0  0  0  0  0  0  0
   -2.1906    1.4120    0.1948 C   0  0  0  0  0  0  0  0  0  0  0  0
   -3.0899    2.1770    0.6480 O   0  0  0  0  0  0  0  0  0  0  0  0
   -1.0035    1.4583    0.7746 N   0  0  0  0  0  0  0  0  0  0  0  0
   -0.7279    2.3503    1.8920 C   0  0  0  0  0  0  0  0  0  0  0  0
   -0.0280    0.6398    0.2955 C   0  0  0  0  0  0  0  0  0  0  0  0
    1.1662    0.6951    0.8885 N   0  0  0  0  0  0  0  0  0  0  0  0
  1  2  1  0
  2  3  1  0
  2  4  1  0
  4  5  1  0
  5  6  1  0
  6  7  2  0
  6  8  1  0
  8  9  1  0
  9 10  1  0
 10 11  1  0
 11 12  1  0
 12 13  1  0
 12 14  2  0
 16 15  1  1
 16 17  1  0
 17 18  1  0
 18 19  1  0
 19 20  2  0
 20 21  1  0
 21 22  2  0
 16 23  1  0
 23 24  1  0
 24 25  2  0
 25 26  1  0
 26 27  2  0
 27 28  1  0
 28 29  2  0
 29 30  1  0
 30 31  1  0
 31 32  2  0
 32 33  1  0
 33 34  2  0
 34 35  1  0
 34 36  1  0
 36 37  2  0
 37 38  1  0
 29 39  1  0
 39 40  2  0
 39 41  1  0
 41 42  1  0
 41 43  1  0
 43 44  2  0
 22 18  1  0
 44 24  1  0
 43 27  1  0
 37 31  1  0
M  RAD  1  13   2
M  END

