
     RDKit          3D

 38 40  0  0  0  0  0  0  0  0999 V2000
    3.2825    1.0627   -1.0685 C   0  0  0  0  0  0  0  0  0  0  0  0
    2.2904    0.5504   -0.0451 C   0  0  0  0  0  0  0  0  0  0  0  0
    1.0497    0.2868   -0.7509 N   0  0  0  0  0  0  0  0  0  0  0  0
   -0.1149   -0.2094   -0.1033 C   0  0  0  0  0  0  0  0  0  0  0  0
   -0.0031   -0.4109    1.1471 O   0  0  0  0  0  0  0  0  0  0  0  0
   -1.3758   -0.4764   -0.8249 C   0  0  0  0  0  0  0  0  0  0  0  0
   -2.3988   -0.9924    0.1668 C   0  0  0  0  0  0  0  0  0  0  0  0
   -2.7300    0.1891    1.4788 S   0  0  0  0  0  0  0  0  0  0  0  0
   -6.3081   -1.5912   -0.8882 C   0  0  0  0  0  0  0  0  0  0  0  0
   -5.0543   -2.0434    0.0871 C   0  0  2  0  0  0  0  0  0  0  0  0
   -5.1494   -0.7919    1.1446 C   0  0  0  0  0  0  0  0  0  0  0  0
   -4.9766    0.4385    0.5137 N   0  0  0  0  0  0  0  0  0  0  0  0
   -5.9604    1.1781   -0.0050 N   0  0  0  0  0  0  0  0  0  0  0  0
   -5.4766    2.3081   -0.5427 C   0  0  0  0  0  0  0  0  0  0  0  0
   -4.1467    2.2324   -0.3319 N   0  0  0  0  0  0  0  0  0  0  0  0
   -3.8714    1.1232    0.2921 N   0  0  0  0  0  0  0  0  0  0  0  0
   -3.9514   -1.3439   -0.7895 N   0  0  0  0  0  0  0  0  0  0  0  0
   -2.6237   -1.4602   -0.3298 C   0  0  0  0  0  0  0  0  0  0  0  0
   -2.2532   -2.1092    0.7729 N   0  0  0  0  0  0  0  0  0  0  0  0
   -0.9780   -2.2041    1.1878 C   0  0  0  0  0  0  0  0  0  0  0  0
    0.0013   -1.6114    0.4546 C   0  0  0  0  0  0  0  0  0  0  0  0
    1.3416   -1.6488    0.7920 C   0  0  0  0  0  0  0  0  0  0  0  0
    2.2652   -1.0175   -0.0138 C   0  0  0  0  0  0  0  0  0  0  0  0
    3.6080   -1.0304    0.2855 O   0  0  0  0  0  0  0  0  0  0  0  0
    4.3718    0.0892    0.5135 C   0  0  0  0  0  0  0  0  0  0  0  0
    5.4619    0.3486   -0.3011 C   0  0  0  0  0  0  0  0  0  0  0  0
    6.2171    1.4774   -0.0571 C   0  0  0  0  0  0  0  0  0  0  0  0
    5.8922    2.3351    0.9821 C   0  0  0  0  0  0  0  0  0  0  0  0
    6.6576    3.4546    1.2086 F   0  0  0  0  0  0  0  0  0  0  0  0
    4.8040    2.0710    1.7910 C   0  0  0  0  0  0  0  0  0  0  0  0
    4.0434    0.9425    1.5523 C   0  0  0  0  0  0  0  0  0  0  0  0
    2.9789    0.7170    2.3713 F   0  0  0  0  0  0  0  0  0  0  0  0
    1.8428   -0.3647   -1.1334 C   0  0  0  0  0  0  0  0  0  0  0  0
    2.6544    0.2329   -1.9091 O   0  0  0  0  0  0  0  0  0  0  0  0
    0.5404   -0.3189   -1.4762 N   0  0  0  0  0  0  0  0  0  0  0  0
    0.1292    0.3913   -2.6842 C   0  0  0  0  0  0  0  0  0  0  0  0
   -0.3906   -0.9353   -0.6954 C   0  0  0  0  0  0  0  0  0  0  0  0
   -1.6693   -0.8691   -1.0658 N   0  0  0  0  0  0  0  0  0  0  0  0
  1  2  1  0
  2  3  1  0
  3  4  1  0
  4  5  2  0
  4  6  1  0
  6  7  1  0
  7  8  1  0
 10  9  1  6
 10 11  1  0
 11 12  1  0
 12 13  1  0
 13 14  2  0
 14 15  1  0
 15 16  2  0
 10 17  1  0
 17 18  1  0
 18 19  2  0
 19 20  1  0
 20 21  2  0
 21 22  1  0
 22 23  2  0
 23 24  1  0
 24 25  1  0
 25 26  2  0
 26 27  1  0
 27 28  2  0
 28 29  1  0
 28 30  1  0
 30 31  2  0
 31 32  1  0
 23 33  1  0
 33 34  2  0
 33 35  1  0
 35 36  1  0
 35 37  1  0
 37 38  2  0
 16 12  1  0
 38 18  1  0
 37 21  1  0
 31 25  1  0
M  END

