
     RDKit          3D

 41 44  0  0  0  0  0  0  0  0999 V2000
    2.6023    0.5980    1.5146 C   0  0  0  0  0  0  0  0  0  0  0  0
    2.6542    0.1985    0.0535 C   0  0  0  0  0  0  0  0  0  0  0  0
    3.7924    0.8174   -0.6872 C   0  0  0  0  0  0  0  0  0  0  0  0
    1.3111    0.5188   -0.5501 C   0  0  0  0  0  0  0  0  0  0  0  0
    0.2679   -0.2509    0.1690 C   0  0  0  0  0  0  0  0  0  0  0  0
    0.6626   -1.0055    1.1165 O   0  0  0  0  0  0  0  0  0  0  0  0
   -1.1096   -0.1630   -0.1689 N   0  0  0  0  0  0  0  0  0  0  0  0
   -2.1586   -0.8935    0.5038 C   0  0  0  0  0  0  0  0  0  0  0  0
   -3.4336   -0.4685   -0.1889 C   0  0  0  0  0  0  0  0  0  0  0  0
   -2.9504   -0.0166   -1.5457 C   0  0  0  0  0  0  0  0  0  0  0  0
   -1.6383    0.6653   -1.2253 C   0  0  0  0  0  0  0  0  0  0  0  0
   -3.8953    0.1188    1.5752 C   0  0  0  0  0  0  0  0  0  0  0  0
   -4.0145   -1.5282    1.5604 C   0  0  1  0  0  0  0  0  0  0  0  0
   -5.6504   -1.5222    1.5116 C   0  0  0  0  0  0  0  0  0  0  0  0
   -5.9099   -0.7889    0.3002 N   0  0  0  0  0  0  0  0  0  0  0  0
   -6.0284   -1.3567   -0.8889 N   0  0  0  0  0  0  0  0  0  0  0  0
   -6.2649   -0.3994   -1.7892 C   0  0  0  0  0  0  0  0  0  0  0  0
   -6.2847    0.7529   -1.1087 N   0  0  0  0  0  0  0  0  0  0  0  0
   -6.0661    0.5050    0.1721 N   0  0  0  0  0  0  0  0  0  0  0  0
   -3.7987   -1.6522    0.0176 N   0  0  0  0  0  0  0  0  0  0  0  0
   -2.5293   -1.1154   -0.3877 C   0  0  0  0  0  0  0  0  0  0  0  0
   -2.1653   -1.1355   -1.6949 N   0  0  0  0  0  0  0  0  0  0  0  0
   -0.9812   -0.6375   -2.0916 C   0  0  0  0  0  0  0  0  0  0  0  0
   -0.0925   -0.0926   -1.2177 C   0  0  0  0  0  0  0  0  0  0  0  0
    1.1406    0.4378   -1.5492 C   0  0  0  0  0  0  0  0  0  0  0  0
    1.9300    0.9549   -0.5466 C   0  0  0  0  0  0  0  0  0  0  0  0
    3.1629    1.4915   -0.8394 O   0  0  0  0  0  0  0  0  0  0  0  0
    4.2811    0.9092   -0.2707 C   0  0  0  0  0  0  0  0  0  0  0  0
    4.1340   -0.1793    0.5471 C   0  0  0  0  0  0  0  0  0  0  0  0
    5.2060   -0.7789    1.1240 C   0  0  0  0  0  0  0  0  0  0  0  0
    6.4942   -0.3275    0.9194 C   0  0  0  0  0  0  0  0  0  0  0  0
    7.5707   -0.9317    1.5002 F   0  0  0  0  0  0  0  0  0  0  0  0
    6.6152    0.7689    0.0926 C   0  0  0  0  0  0  0  0  0  0  0  0
    5.5546    1.3963   -0.5042 C   0  0  0  0  0  0  0  0  0  0  0  0
    5.6765    2.4755   -1.3177 F   0  0  0  0  0  0  0  0  0  0  0  0
    1.5224    0.9555    0.7650 C   0  0  0  0  0  0  0  0  0  0  0  0
    2.2574    1.4376    1.6946 O   0  0  0  0  0  0  0  0  0  0  0  0
    0.3312    0.4403    1.0678 N   0  0  0  0  0  0  0  0  0  0  0  0
   -0.0934    0.4455    2.4676 C   0  0  0  0  0  0  0  0  0  0  0  0
   -0.4556   -0.0678    0.1186 C   0  0  0  0  0  0  0  0  0  0  0  0
   -1.6466   -0.5760    0.4682 N   0  0  0  0  0  0  0  0  0  0  0  0
  1  2  1  0
  2  3  1  0
  2  4  1  0
  4  5  1  0
  5  6  2  0
  5  7  1  0
  7  8  1  0
  8  9  1  0
  9 10  1  0
 10 11  1  0
 13 12  1  1
 13 14  1  0
 14 15  1  0
 15 16  1  0
 16 17  2  0
 17 18  1  0
 18 19  2  0
 13 20  1  0
 20 21  1  0
 21 22  2  0
 22 23  1  0
 23 24  2  0
 24 25  1  0
 25 26  2  0
 26 27  1  0
 27 28  1  0
 28 29  2  0
 29 30  1  0
 30 31  2  0
 31 32  1  0
 31 33  1  0
 33 34  2  0
 34 35  1  0
 26 36  1  0
 36 37  2  0
 36 38  1  0
 38 39  1  0
 38 40  1  0
 40 41  2  0
 11  7  1  0
 19 15  1  0
 41 21  1  0
 40 24  1  0
 34 28  1  0
M  END

