
     RDKit          3D

 47 51  0  0  0  0  0  0  0  0999 V2000
    5.7937   -1.8960   -2.6056 C   0  0  0  0  0  0  0  0  0  0  0  0
    4.7728   -0.6954   -1.9835 C   0  0  2  0  0  0  0  0  0  0  0  0
    5.6485   -0.6784   -0.5800 C   0  0  0  0  0  0  0  0  0  0  0  0
    5.0222    0.3050    0.2482 N   0  0  0  0  0  0  0  0  0  0  0  0
    5.3481    1.6034    0.2244 N   0  0  0  0  0  0  0  0  0  0  0  0
    4.6258    2.2845    1.1146 C   0  0  0  0  0  0  0  0  0  0  0  0
    3.8297    1.3752    1.7052 N   0  0  0  0  0  0  0  0  0  0  0  0
    4.0828    0.2146    1.1763 N   0  0  0  0  0  0  0  0  0  0  0  0
    3.7450   -1.7721   -1.4581 N   0  0  0  0  0  0  0  0  0  0  0  0
    2.4778   -1.2274   -1.1224 C   0  0  0  0  0  0  0  0  0  0  0  0
    2.1442    0.0656   -1.2448 N   0  0  0  0  0  0  0  0  0  0  0  0
    0.9349    0.4974   -0.9081 C   0  0  0  0  0  0  0  0  0  0  0  0
   -0.0261   -0.3543   -0.4216 C   0  0  0  0  0  0  0  0  0  0  0  0
   -1.2923    0.0523   -0.0608 C   0  0  0  0  0  0  0  0  0  0  0  0
   -2.1751   -0.8747    0.4127 C   0  0  0  0  0  0  0  0  0  0  0  0
   -3.4435   -0.5304    0.7857 O   0  0  0  0  0  0  0  0  0  0  0  0
   -3.9166    0.7731    0.7094 C   0  0  0  0  0  0  0  0  0  0  0  0
   -3.1565    1.8302    0.2542 C   0  0  0  0  0  0  0  0  0  0  0  0
   -3.6851    3.1040    0.2024 C   0  0  0  0  0  0  0  0  0  0  0  0
   -4.9752    3.3981    0.5921 C   0  0  0  0  0  0  0  0  0  0  0  0
   -5.4805    4.6589    0.5347 F   0  0  0  0  0  0  0  0  0  0  0  0
   -5.7301    2.3371    1.0461 C   0  0  0  0  0  0  0  0  0  0  0  0
   -5.2092    1.0542    1.1023 C   0  0  0  0  0  0  0  0  0  0  0  0
   -5.9658    0.0206    1.5519 F   0  0  0  0  0  0  0  0  0  0  0  0
   -1.8033   -2.2019    0.5282 C   0  0  0  0  0  0  0  0  0  0  0  0
   -2.6317   -3.0515    0.9688 O   0  0  0  0  0  0  0  0  0  0  0  0
   -0.5733   -2.5703    0.1728 N   0  0  0  0  0  0  0  0  0  0  0  0
   -0.2249   -3.9765    0.3109 C   0  0  0  0  0  0  0  0  0  0  0  0
    0.3196   -1.6858   -0.2963 C   0  0  0  0  0  0  0  0  0  0  0  0
    1.5439   -2.0594   -0.6488 N   0  0  0  0  0  0  0  0  0  0  0  0
    2.7044   -1.1806    0.7833 O   0  0  0  0  0  0  0  0  0  0  0  0
    2.3505   -0.0350    0.4108 C   0  0  0  0  0  0  0  0  0  0  0  0
    0.9675    0.2564   -0.0556 C   0  0  0  0  0  0  0  0  0  0  0  0
    0.1714   -1.0383    0.0226 C   0  0  0  0  0  0  0  0  0  0  0  0
   -1.1989   -0.7197   -0.4463 C   0  0  0  0  0  0  0  0  0  0  0  0
   -1.7469   -1.0298   -1.6640 C   0  0  0  0  0  0  0  0  0  0  0  0
   -2.9970   -0.5595   -1.6695 N   0  0  0  0  0  0  0  0  0  0  0  0
   -3.2928    0.0455   -0.5090 C   0  0  0  0  0  0  0  0  0  0  0  0
   -4.4625    0.6803   -0.0564 C   0  0  0  0  0  0  0  0  0  0  0  0
   -4.4465    1.2128    1.2101 C   0  0  0  0  0  0  0  0  0  0  0  0
   -3.3256    1.1261    2.0035 C   0  0  0  0  0  0  0  0  0  0  0  0
   -2.1858    0.5031    1.5522 C   0  0  0  0  0  0  0  0  0  0  0  0
   -2.1653   -0.0483    0.2738 C   0  0  0  0  0  0  0  0  0  0  0  0
    3.2909    1.0475    0.4253 N   0  0  0  0  0  0  0  0  0  0  0  0
    4.6292    0.7360    0.8836 C   0  0  0  0  0  0  0  0  0  0  0  0
    5.2104   -0.3147   -0.0122 C   0  0  0  0  0  0  0  0  0  0  0  0
    6.4969   -0.6817    0.3476 O   0  0  0  0  0  0  0  0  0  0  0  0
  2  1  1  6
  2  3  1  0
  3  4  1  0
  4  5  1  0
  5  6  2  0
  6  7  1  0
  7  8  2  0
  2  9  1  0
  9 10  1  0
 10 11  2  0
 11 12  1  0
 12 13  2  0
 13 14  1  0
 14 15  2  0
 15 16  1  0
 16 17  1  0
 17 18  2  0
 18 19  1  0
 19 20  2  0
 20 21  1  0
 20 22  1  0
 22 23  2  0
 23 24  1  0
 15 25  1  0
 25 26  2  0
 25 27  1  0
 27 28  1  0
 27 29  1  0
 29 30  2  0
 31 32  2  0
 32 33  1  0
 33 34  1  0
 34 35  1  0
 35 36  2  0
 36 37  1  0
 37 38  1  0
 38 39  2  0
 39 40  1  0
 40 41  2  0
 41 42  1  0
 42 43  2  0
 32 44  1  0
 44 45  1  0
 45 46  1  0
 46 47  1  0
  8  4  1  0
 30 10  1  0
 43 35  1  0
 29 13  1  0
 43 38  1  0
 23 17  1  0
M  END

