
     RDKit          3D

 44 46  0  0  0  0  0  0  0  0999 V2000
    4.0608   -0.8205    1.0774 C   0  0  0  0  0  0  0  0  0  0  0  0
    4.0239   -0.9775   -0.4228 C   0  0  0  0  0  0  0  0  0  0  0  0
    3.9678   -2.4253   -0.8485 C   0  0  0  0  0  0  0  0  0  0  0  0
    2.9753   -0.1298   -1.0720 C   0  0  0  0  0  0  0  0  0  0  0  0
    1.6056   -0.4887   -0.5566 C   0  0  0  0  0  0  0  0  0  0  0  0
    0.5570    0.3544   -1.2016 C   0  0  0  0  0  0  0  0  0  0  0  0
    0.9150    1.2094   -2.0439 O   0  0  0  0  0  0  0  0  0  0  0  0
   -0.8168    0.2354   -0.9091 N   0  0  0  0  0  0  0  0  0  0  0  0
   -1.8244    1.0793   -1.5603 C   0  0  0  0  0  0  0  0  0  0  0  0
   -3.2036    0.7677   -1.0879 C   0  0  0  0  0  0  0  0  0  0  0  0
   -3.3728    0.9715    0.3955 C   0  0  0  0  0  0  0  0  0  0  0  0
   -2.3780    0.0326    1.0786 C   0  0  0  0  0  0  0  0  0  0  0  0
   -2.5675    0.2564    2.5790 C   0  0  0  0  0  0  0  0  0  0  0  0
   -3.9424   -0.0650    2.9436 N   0  0  0  0  0  4  0  0  0  0  0  0
    4.4991    1.3599   -1.4544 C   0  0  0  0  0  0  0  0  0  0  0  0
    4.6759    1.1073    0.1518 C   0  0  2  0  0  0  0  0  0  0  0  0
    6.0114    0.1544   -0.0582 C   0  0  0  0  0  0  0  0  0  0  0  0
    6.3928   -0.2265    1.2887 N   0  0  0  0  0  0  0  0  0  0  0  0
    6.0477   -1.2402    2.0277 N   0  0  0  0  0  0  0  0  0  0  0  0
    6.6640   -1.1781    3.2278 C   0  0  0  0  0  0  0  0  0  0  0  0
    7.4078   -0.0766    3.1967 N   0  0  0  0  0  0  0  0  0  0  0  0
    7.2339    0.4965    2.0070 N   0  0  0  0  0  0  0  0  0  0  0  0
    3.6998   -0.1140    0.1638 N   0  0  0  0  0  0  0  0  0  0  0  0
    2.3769    0.1974   -0.2680 C   0  0  0  0  0  0  0  0  0  0  0  0
    1.9950    1.4272   -0.6523 N   0  0  0  0  0  0  0  0  0  0  0  0
    0.7500    1.7246   -1.0597 C   0  0  0  0  0  0  0  0  0  0  0  0
   -0.1906    0.7132   -1.0859 C   0  0  0  0  0  0  0  0  0  0  0  0
   -1.4924    1.0102   -1.5086 C   0  0  0  0  0  0  0  0  0  0  0  0
   -2.3924   -0.0091   -1.5219 C   0  0  0  0  0  0  0  0  0  0  0  0
   -3.6849    0.2351   -1.9301 O   0  0  0  0  0  0  0  0  0  0  0  0
   -4.6971   -0.0229   -0.9948 C   0  0  0  0  0  0  0  0  0  0  0  0
   -5.6743   -0.9404   -1.2738 C   0  0  0  0  0  0  0  0  0  0  0  0
   -6.6908   -1.2181   -0.3674 C   0  0  0  0  0  0  0  0  0  0  0  0
   -6.7152   -0.5531    0.8423 C   0  0  0  0  0  0  0  0  0  0  0  0
   -7.6957   -0.7924    1.7672 F   0  0  0  0  0  0  0  0  0  0  0  0
   -5.7231    0.3580    1.0894 C   0  0  0  0  0  0  0  0  0  0  0  0
   -4.7026    0.6512    0.2047 C   0  0  0  0  0  0  0  0  0  0  0  0
   -3.7556    1.5717    0.5307 F   0  0  0  0  0  0  0  0  0  0  0  0
   -1.9949   -1.2765   -1.1248 C   0  0  0  0  0  0  0  0  0  0  0  0
   -2.8861   -2.1673   -1.1650 O   0  0  0  0  0  0  0  0  0  0  0  0
   -0.7389   -1.5407   -0.7220 N   0  0  0  0  0  0  0  0  0  0  0  0
   -0.3479   -2.8746   -0.3115 C   0  0  0  0  0  0  0  0  0  0  0  0
    0.1796   -0.5510   -0.6969 C   0  0  0  0  0  0  0  0  0  0  0  0
    1.4487   -0.7645   -0.3021 N   0  0  0  0  0  0  0  0  0  0  0  0
  1  2  1  0
  2  3  1  0
  2  4  1  0
  4  5  1  0
  5  6  1  0
  6  7  2  0
  6  8  1  0
  8  9  1  0
  9 10  1  0
 10 11  1  0
 11 12  1  0
 12 13  1  0
 13 14  1  0
 16 15  1  6
 16 17  1  0
 17 18  1  0
 18 19  1  0
 19 20  2  0
 20 21  1  0
 21 22  2  0
 16 23  1  0
 23 24  1  0
 24 25  2  0
 25 26  1  0
 26 27  2  0
 27 28  1  0
 28 29  2  0
 29 30  1  0
 30 31  1  0
 31 32  2  0
 32 33  1  0
 33 34  2  0
 34 35  1  0
 34 36  1  0
 36 37  2  0
 37 38  1  0
 29 39  1  0
 39 40  2  0
 39 41  1  0
 41 42  1  0
 41 43  1  0
 43 44  2  0
 22 18  1  0
 44 24  1  0
 43 27  1  0
 37 31  1  0
M  CHG  1  14   1
M  END

