
     RDKit          3D

 38 40  0  0  0  0  0  0  0  0999 V2000
    3.0898   -0.1894    0.0723 C   0  0  0  0  0  0  0  0  0  0  0  0
    1.9592    0.5580   -0.4769 N   0  0  0  0  0  0  0  0  0  0  0  0
    0.6351    0.1683   -0.1545 C   0  0  0  0  0  0  0  0  0  0  0  0
    0.4711   -0.8148    0.5992 O   0  0  0  0  0  0  0  0  0  0  0  0
   -0.5598    0.8734   -0.6702 C   0  0  0  0  0  0  0  0  0  0  0  0
   -1.8178    0.2455   -0.1671 C   0  0  0  0  0  0  0  0  0  0  0  0
   -1.9907   -1.1842   -0.5500 C   0  0  0  0  0  0  0  0  0  0  0  0
   -1.7870    0.3431    1.3472 C   0  0  0  0  0  0  0  0  0  0  0  0
    4.0803    0.1725   -2.9705 C   0  0  0  0  0  0  0  0  0  0  0  0
    4.9285    0.1329   -1.5459 C   0  0  2  0  0  0  0  0  0  0  0  0
    3.8519   -0.8812   -0.8046 C   0  0  0  0  0  0  0  0  0  0  0  0
    4.4967   -1.0089    0.5120 N   0  0  0  0  0  0  0  0  0  0  0  0
    4.2588   -0.2156    1.5298 N   0  0  0  0  0  0  0  0  0  0  0  0
    5.0285   -0.6439    2.5455 C   0  0  0  0  0  0  0  0  0  0  0  0
    5.7324   -1.7088    2.1177 N   0  0  0  0  0  0  0  0  0  0  0  0
    5.3900   -1.9125    0.8713 N   0  0  0  0  0  0  0  0  0  0  0  0
    4.2933    1.4547   -0.9807 N   0  0  0  0  0  0  0  0  0  0  0  0
    2.9171    1.5478   -0.8350 C   0  0  0  0  0  0  0  0  0  0  0  0
    2.4195    2.6701   -0.3584 N   0  0  0  0  0  0  0  0  0  0  0  0
    1.1033    2.8864   -0.1695 C   0  0  0  0  0  0  0  0  0  0  0  0
    0.1797    1.9088   -0.4765 C   0  0  0  0  0  0  0  0  0  0  0  0
   -1.1790    2.0735   -0.3043 C   0  0  0  0  0  0  0  0  0  0  0  0
   -2.0621    1.0628   -0.6275 C   0  0  0  0  0  0  0  0  0  0  0  0
   -3.4250    1.1624   -0.4802 O   0  0  0  0  0  0  0  0  0  0  0  0
   -4.1075    0.2815    0.3471 C   0  0  0  0  0  0  0  0  0  0  0  0
   -3.4713   -0.7202    1.0517 C   0  0  0  0  0  0  0  0  0  0  0  0
   -4.1546   -1.5937    1.8733 C   0  0  0  0  0  0  0  0  0  0  0  0
   -5.5223   -1.5017    2.0275 C   0  0  0  0  0  0  0  0  0  0  0  0
   -6.2146   -2.3572    2.8359 F   0  0  0  0  0  0  0  0  0  0  0  0
   -6.1696   -0.5030    1.3271 C   0  0  0  0  0  0  0  0  0  0  0  0
   -5.4759    0.3643    0.5089 C   0  0  0  0  0  0  0  0  0  0  0  0
   -6.1093    1.3575   -0.1893 F   0  0  0  0  0  0  0  0  0  0  0  0
   -1.5044   -0.1021   -1.1254 C   0  0  0  0  0  0  0  0  0  0  0  0
   -2.2162   -1.1009   -1.4576 O   0  0  0  0  0  0  0  0  0  0  0  0
   -0.1773   -0.2459   -1.2870 N   0  0  0  0  0  0  0  0  0  0  0  0
    0.3767   -1.4888   -1.8150 C   0  0  0  0  0  0  0  0  0  0  0  0
    0.7020    0.7322   -0.9762 C   0  0  0  0  0  0  0  0  0  0  0  0
    2.0305    0.5719   -1.1443 N   0  0  0  0  0  0  0  0  0  0  0  0
  1  2  1  0
  2  3  1  0
  3  4  2  0
  3  5  1  0
  5  6  1  0
  6  7  1  0
  6  8  1  0
 10  9  1  6
 10 11  1  0
 11 12  1  0
 12 13  1  0
 13 14  2  0
 14 15  1  0
 15 16  2  0
 10 17  1  0
 17 18  1  0
 18 19  2  0
 19 20  1  0
 20 21  2  0
 21 22  1  0
 22 23  2  0
 23 24  1  0
 24 25  1  0
 25 26  2  0
 26 27  1  0
 27 28  2  0
 28 29  1  0
 28 30  1  0
 30 31  2  0
 31 32  1  0
 23 33  1  0
 33 34  2  0
 33 35  1  0
 35 36  1  0
 35 37  1  0
 37 38  2  0
 16 12  1  0
 38 18  1  0
 37 21  1  0
 31 25  1  0
M  END

