
     RDKit          3D

 42 45  0  0  0  0  0  0  0  0999 V2000
    2.7656   -1.1181    1.0617 C   0  0  0  0  0  0  0  0  0  0  0  0
    3.0311   -0.0930    0.0588 C   0  0  0  0  0  0  0  0  0  0  0  0
    4.3818   -0.1003   -0.5683 C   0  0  0  0  0  0  0  0  0  0  0  0
    2.1111    0.9437   -0.2851 C   0  0  0  0  0  0  0  0  0  0  0  0
    0.8307    0.7153   -0.7964 N   0  0  0  0  0  0  0  0  0  0  0  0
   -0.1375   -0.0074   -0.0616 C   0  0  0  0  0  0  0  0  0  0  0  0
    0.1248   -0.4424    1.0303 O   0  0  0  0  0  0  0  0  0  0  0  0
   -1.5555   -0.1982   -0.7612 C   0  0  2  0  0  0  0  0  0  0  0  0
   -2.1746    1.2128   -0.1962 C   0  0  0  0  0  0  0  0  0  0  0  0
   -3.6000    0.8014    0.0178 C   0  0  0  0  0  0  0  0  0  0  0  0
   -3.5783   -0.7060    0.1000 C   0  0  0  0  0  0  0  0  0  0  0  0
   -2.1991   -1.0075    0.4002 N   0  0  0  0  0  0  0  0  0  0  0  0
    4.4987    0.5266   -2.4861 C   0  0  0  0  0  0  0  0  0  0  0  0
    5.0760    1.6068   -1.3791 C   0  0  2  0  0  0  0  0  0  0  0  0
    6.3358    0.6566   -0.9235 C   0  0  0  0  0  0  0  0  0  0  0  0
    5.8273   -0.5670   -0.4204 N   0  0  0  0  0  0  0  0  0  0  0  0
    5.5208   -0.7814    0.8463 N   0  0  0  0  0  0  0  0  0  0  0  0
    5.0685   -2.0325    0.9942 C   0  0  0  0  0  0  0  0  0  0  0  0
    5.0957   -2.6021   -0.2014 N   0  0  0  0  0  0  0  0  0  0  0  0
    5.5507   -1.7170   -1.0381 N   0  0  0  0  0  0  0  0  0  0  0  0
    4.1180    1.1163   -0.2307 N   0  0  0  0  0  0  0  0  0  0  0  0
    2.7338    1.2415   -0.5323 C   0  0  0  0  0  0  0  0  0  0  0  0
    2.2640    1.7300   -1.6835 N   0  0  0  0  0  0  0  0  0  0  0  0
    0.9117    1.8036   -1.8638 C   0  0  0  0  0  0  0  0  0  0  0  0
    0.0375    1.3872   -0.8889 C   0  0  0  0  0  0  0  0  0  0  0  0
   -1.3493    1.4490   -1.0415 C   0  0  0  0  0  0  0  0  0  0  0  0
   -2.1892    1.0239   -0.0462 C   0  0  0  0  0  0  0  0  0  0  0  0
   -3.5412    1.0885   -0.2052 O   0  0  0  0  0  0  0  0  0  0  0  0
   -4.3883   -0.0014   -0.1630 C   0  0  0  0  0  0  0  0  0  0  0  0
   -3.8659   -1.2557    0.0526 C   0  0  0  0  0  0  0  0  0  0  0  0
   -4.6520   -2.3867    0.1068 C   0  0  0  0  0  0  0  0  0  0  0  0
   -5.9976   -2.2504   -0.0604 C   0  0  0  0  0  0  0  0  0  0  0  0
   -6.8241   -3.3269   -0.0176 F   0  0  0  0  0  0  0  0  0  0  0  0
   -6.5582   -0.9980   -0.2801 C   0  0  0  0  0  0  0  0  0  0  0  0
   -5.7458    0.1198   -0.3297 C   0  0  0  0  0  0  0  0  0  0  0  0
   -6.2632    1.3590   -0.5429 F   0  0  0  0  0  0  0  0  0  0  0  0
   -1.6503    0.5323    1.1127 C   0  0  0  0  0  0  0  0  0  0  0  0
   -2.4269    0.1429    2.0244 O   0  0  0  0  0  0  0  0  0  0  0  0
   -0.2885    0.4657    1.2765 N   0  0  0  0  0  0  0  0  0  0  0  0
    0.2903   -0.0530    2.4991 C   0  0  0  0  0  0  0  0  0  0  0  0
    0.5365    0.8840    0.2969 C   0  0  0  0  0  0  0  0  0  0  0  0
    1.8751    0.8382    0.4117 N   0  0  0  0  0  0  0  0  0  0  0  0
  1  2  1  0
  2  3  1  0
  2  4  1  0
  4  5  1  0
  5  6  1  0
  6  7  2  0
  8  6  1  1
  8  9  1  0
  9 10  1  0
 10 11  1  0
 11 12  1  0
 14 13  1  6
 14 15  1  0
 15 16  1  0
 16 17  1  0
 17 18  2  0
 18 19  1  0
 19 20  2  0
 14 21  1  0
 21 22  1  0
 22 23  2  0
 23 24  1  0
 24 25  2  0
 25 26  1  0
 26 27  2  0
 27 28  1  0
 28 29  1  0
 29 30  2  0
 30 31  1  0
 31 32  2  0
 32 33  1  0
 32 34  1  0
 34 35  2  0
 35 36  1  0
 27 37  1  0
 37 38  2  0
 37 39  1  0
 39 40  1  0
 39 41  1  0
 41 42  2  0
 12  8  1  0
 20 16  1  0
 42 22  1  0
 41 25  1  0
 35 29  1  0
M  END

