
     RDKit          3D

 43 45  0  0  0  0  0  0  0  0999 V2000
   -4.2395   -0.9625   -0.3493 C   0  0  0  0  0  0  0  0  0  0  0  0
   -4.0581    0.6961   -0.2671 C   0  0  1  0  0  0  0  0  0  0  0  0
   -3.6307    0.6789    1.2005 O   0  0  0  0  0  0  0  0  0  0  0  0
   -2.5086    0.7443   -0.8491 C   0  0  0  0  0  0  0  0  0  0  0  0
   -1.6433   -0.0207    0.0001 C   0  0  0  0  0  0  0  0  0  0  0  0
   -1.9767   -0.6740    1.0485 O   0  0  0  0  0  0  0  0  0  0  0  0
   -0.2591   -0.0899   -0.3169 N   0  0  0  0  0  0  0  0  0  0  0  0
    0.6697   -0.8455    0.4994 C   0  0  0  0  0  0  0  0  0  0  0  0
    2.0261   -0.7069   -0.1108 C   0  0  0  0  0  0  0  0  0  0  0  0
    2.4645    0.7566   -0.1609 C   0  0  0  0  0  0  0  0  0  0  0  0
    3.8410    0.8308   -0.7870 C   0  0  0  0  0  0  0  0  0  0  0  0
    4.8605    0.0402    0.0157 C   0  0  0  0  0  0  0  0  0  0  0  0
    4.4543   -1.3748    0.0770 N   0  0  0  0  0  4  0  0  0  0  0  0
    3.8347    0.0522   -1.5638 C   0  0  0  0  0  0  0  0  0  0  0  0
    4.0283    1.6479   -1.1486 C   0  0  2  0  0  0  0  0  0  0  0  0
    5.6726    1.6341   -1.0175 C   0  0  0  0  0  0  0  0  0  0  0  0
    6.0675    0.6941   -0.0229 N   0  0  0  0  0  0  0  0  0  0  0  0
    6.3375   -0.5807   -0.2104 N   0  0  0  0  0  0  0  0  0  0  0  0
    6.6674   -1.1088    0.9738 C   0  0  0  0  0  0  0  0  0  0  0  0
    6.5926   -0.1289    1.8865 N   0  0  0  0  0  0  0  0  0  0  0  0
    6.2261    0.9522    1.2494 N   0  0  0  0  0  0  0  0  0  0  0  0
    3.7826    1.3841    0.3907 N   0  0  0  0  0  0  0  0  0  0  0  0
    2.4738    0.8174    0.6392 C   0  0  0  0  0  0  0  0  0  0  0  0
    2.0908    0.5268    1.8953 N   0  0  0  0  0  0  0  0  0  0  0  0
    0.8979    0.0046    2.1758 C   0  0  0  0  0  0  0  0  0  0  0  0
   -0.0004   -0.2597    1.1651 C   0  0  0  0  0  0  0  0  0  0  0  0
   -1.2520   -0.8001    1.3894 C   0  0  0  0  0  0  0  0  0  0  0  0
   -2.1073   -1.0411    0.3263 C   0  0  0  0  0  0  0  0  0  0  0  0
   -3.3501   -1.5750    0.5226 O   0  0  0  0  0  0  0  0  0  0  0  0
   -4.4532   -0.8369    0.1176 C   0  0  0  0  0  0  0  0  0  0  0  0
   -5.2866   -1.3927   -0.8248 C   0  0  0  0  0  0  0  0  0  0  0  0
   -6.4126   -0.7030   -1.2746 C   0  0  0  0  0  0  0  0  0  0  0  0
   -6.6828    0.5536   -0.7587 C   0  0  0  0  0  0  0  0  0  0  0  0
   -7.7971    1.1970   -1.2262 F   0  0  0  0  0  0  0  0  0  0  0  0
   -5.8604    1.1309    0.1878 C   0  0  0  0  0  0  0  0  0  0  0  0
   -4.7537    0.4030    0.6012 C   0  0  0  0  0  0  0  0  0  0  0  0
   -3.9122    0.9309    1.5339 F   0  0  0  0  0  0  0  0  0  0  0  0
   -1.7029   -0.7382   -0.9626 C   0  0  0  0  0  0  0  0  0  0  0  0
   -2.4955   -0.9650   -1.9149 O   0  0  0  0  0  0  0  0  0  0  0  0
   -0.4780   -0.2123   -1.1527 N   0  0  0  0  0  0  0  0  0  0  0  0
   -0.0910    0.0915   -2.5179 C   0  0  0  0  0  0  0  0  0  0  0  0
    0.3713    0.0306   -0.1308 C   0  0  0  0  0  0  0  0  0  0  0  0
    1.5928    0.5557   -0.3283 N   0  0  0  0  0  0  0  0  0  0  0  0
  2  1  1  6
  2  3  1  0
  2  4  1  0
  4  5  1  0
  5  6  2  0
  5  7  1  0
  7  8  1  0
  8  9  1  0
  9 10  1  0
 10 11  1  0
 11 12  1  0
 12 13  1  0
 15 14  1  6
 15 16  1  0
 16 17  1  0
 17 18  1  0
 18 19  2  0
 19 20  1  0
 20 21  2  0
 15 22  1  0
 22 23  1  0
 23 24  2  0
 24 25  1  0
 25 26  2  0
 26 27  1  0
 27 28  2  0
 28 29  1  0
 29 30  1  0
 30 31  2  0
 31 32  1  0
 32 33  2  0
 33 34  1  0
 33 35  1  0
 35 36  2  0
 36 37  1  0
 28 38  1  0
 38 39  2  0
 38 40  1  0
 40 41  1  0
 40 42  1  0
 42 43  2  0
 21 17  1  0
 43 23  1  0
 42 26  1  0
 36 30  1  0
M  CHG  1  13   1
M  END

