
     RDKit          3D

 41 43  0  0  0  0  0  0  0  0999 V2000
   -3.8623    0.8588    0.0216 C   0  0  0  0  0  0  0  0  0  0  0  0
   -4.3033   -0.3781   -1.0083 C   0  0  2  0  0  0  0  0  0  0  0  0
   -5.6804   -0.7670   -0.1653 C   0  0  0  0  0  0  0  0  0  0  0  0
   -6.5027    0.4022   -0.1637 N   0  0  0  0  0  0  0  0  0  0  0  0
   -7.4257    0.8349   -0.9736 N   0  0  0  0  0  0  0  0  0  0  0  0
   -7.8961    1.9885   -0.5252 C   0  0  0  0  0  0  0  0  0  0  0  0
   -7.2414    2.2664    0.5890 N   0  0  0  0  0  0  0  0  0  0  0  0
   -6.3918    1.2919    0.8028 N   0  0  0  0  0  0  0  0  0  0  0  0
   -3.4543   -1.4562   -0.2416 N   0  0  0  0  0  0  0  0  0  0  0  0
   -2.0446   -1.1789   -0.1841 C   0  0  0  0  0  0  0  0  0  0  0  0
   -1.5481   -0.0691   -0.7591 N   0  0  0  0  0  0  0  0  0  0  0  0
   -0.2312    0.2504   -0.7410 C   0  0  0  0  0  0  0  0  0  0  0  0
    0.6795   -0.5746   -0.1135 C   0  0  0  0  0  0  0  0  0  0  0  0
    2.0299   -0.2918   -0.0686 C   0  0  0  0  0  0  0  0  0  0  0  0
    2.9135   -1.1407    0.5688 C   0  0  0  0  0  0  0  0  0  0  0  0
    4.2539   -0.8178    0.5885 O   0  0  0  0  0  0  0  0  0  0  0  0
    4.7111    0.3172   -0.0074 C   0  0  0  0  0  0  0  0  0  0  0  0
    5.6265    0.2233   -1.0123 C   0  0  0  0  0  0  0  0  0  0  0  0
    6.1373    1.3445   -1.6663 C   0  0  0  0  0  0  0  0  0  0  0  0
    5.6601    2.5709   -1.2363 C   0  0  0  0  0  0  0  0  0  0  0  0
    6.1144    3.7222   -1.8303 F   0  0  0  0  0  0  0  0  0  0  0  0
    4.7408    2.7181   -0.2314 C   0  0  0  0  0  0  0  0  0  0  0  0
    4.2703    1.5464    0.3822 C   0  0  0  0  0  0  0  0  0  0  0  0
    3.3588    1.6182    1.3844 F   0  0  0  0  0  0  0  0  0  0  0  0
    2.3655   -2.2663    1.1450 C   0  0  0  0  0  0  0  0  0  0  0  0
    3.1432   -3.0614    1.7341 O   0  0  0  0  0  0  0  0  0  0  0  0
    1.0266   -2.5293    1.0902 N   0  0  0  0  0  0  0  0  0  0  0  0
    0.5636   -3.7351    1.7268 C   0  0  0  0  0  0  0  0  0  0  0  0
    0.1546   -1.7115    0.4730 C   0  0  0  0  0  0  0  0  0  0  0  0
   -1.1676   -1.9760    0.4217 N   0  0  0  0  0  0  0  0  0  0  0  0
    3.6411    2.7919    0.6123 N   0  0  0  0  0  0  0  0  0  0  0  0
    2.6668    1.8103    0.8574 C   0  0  0  0  0  0  0  0  0  0  0  0
    2.6919    1.1660    1.9118 O   0  0  0  0  0  0  0  0  0  0  0  0
    1.6363    1.5744   -0.1540 C   0  0  0  0  0  0  0  0  0  0  0  0
    0.7197    0.4805    0.3462 C   0  0  0  0  0  0  0  0  0  0  0  0
   -0.3106    0.2455   -0.6665 N   0  0  0  0  0  0  0  0  0  0  0  0
   -1.3315   -0.7017   -0.5389 C   0  0  0  0  0  0  0  0  0  0  0  0
   -1.3857   -1.4005    0.4945 O   0  0  0  0  0  0  0  0  0  0  0  0
   -2.3285   -0.8594   -1.6293 C   0  0  0  0  0  0  0  0  0  0  0  0
   -3.3075   -1.9364   -1.2394 C   0  0  0  0  0  0  0  0  0  0  0  0
   -2.6921   -3.1706   -1.0285 O   0  0  0  0  0  0  0  0  0  0  0  0
  2  1  1  1
  2  3  1  0
  3  4  1  0
  4  5  1  0
  5  6  2  0
  6  7  1  0
  7  8  2  0
  2  9  1  0
  9 10  1  0
 10 11  2  0
 11 12  1  0
 12 13  2  0
 13 14  1  0
 14 15  2  0
 15 16  1  0
 16 17  1  0
 17 18  2  0
 18 19  1  0
 19 20  2  0
 20 21  1  0
 20 22  1  0
 22 23  2  0
 23 24  1  0
 15 25  1  0
 25 26  2  0
 25 27  1  0
 27 28  1  0
 27 29  1  0
 29 30  2  0
 31 32  1  0
 32 33  2  0
 32 34  1  0
 34 35  1  0
 35 36  1  0
 36 37  1  0
 37 38  2  0
 37 39  1  0
 39 40  1  0
 40 41  1  0
  8  4  1  0
 30 10  1  0
 29 13  1  0
 23 17  1  0
M  END

