
     RDKit          3D

 45 48  0  0  0  0  0  0  0  0999 V2000
    2.3802    2.1296   -0.2777 C   0  0  0  0  0  0  0  0  0  0  0  0
    3.1457    1.0220   -0.9882 C   0  0  0  0  0  0  0  0  0  0  0  0
    4.1524    0.4071   -0.0071 C   0  0  0  0  0  0  0  0  0  0  0  0
    2.1254   -0.0812   -1.2608 C   0  0  0  0  0  0  0  0  0  0  0  0
    1.5870   -0.5233    0.0702 C   0  0  0  0  0  0  0  0  0  0  0  0
    1.9840   -0.0009    1.1529 O   0  0  0  0  0  0  0  0  0  0  0  0
    0.6056   -1.5521    0.1502 N   0  0  0  0  0  0  0  0  0  0  0  0
    0.1108   -1.9491    1.4700 C   0  0  0  0  0  0  0  0  0  0  0  0
   -0.5094   -0.6779    2.0651 C   0  0  0  0  0  0  0  0  0  0  0  0
   -1.6000   -0.2318    1.1747 C   0  0  0  0  0  0  0  0  0  0  0  0
   -2.8859   -0.6762    1.3566 C   0  0  0  0  0  0  0  0  0  0  0  0
   -3.8963   -0.2383    0.5005 C   0  0  0  0  0  0  0  0  0  0  0  0
   -3.5898    0.6359   -0.5182 C   0  0  0  0  0  0  0  0  0  0  0  0
   -2.3001    1.0959   -0.7189 C   0  0  0  0  0  0  0  0  0  0  0  0
   -1.3096    0.6402    0.1540 C   0  0  0  0  0  0  0  0  0  0  0  0
    5.7246   -1.6112    1.0439 C   0  0  0  0  0  0  0  0  0  0  0  0
    4.5782   -1.3272   -0.1248 C   0  0  2  0  0  0  0  0  0  0  0  0
    5.0349    0.2405   -0.4105 C   0  0  0  0  0  0  0  0  0  0  0  0
    6.3859    0.2085   -0.8390 N   0  0  0  0  0  0  0  0  0  0  0  0
    7.3896    0.2885    0.0234 N   0  0  0  0  0  0  0  0  0  0  0  0
    8.5683    0.2383   -0.6046 C   0  0  0  0  0  0  0  0  0  0  0  0
    8.2600    0.1221   -1.9121 N   0  0  0  0  0  0  0  0  0  0  0  0
    6.9432    0.1064   -2.0285 N   0  0  0  0  0  0  0  0  0  0  0  0
    3.4920   -0.8972    0.9461 N   0  0  0  0  0  0  0  0  0  0  0  0
    2.2403   -0.5316    0.4220 C   0  0  0  0  0  0  0  0  0  0  0  0
    2.0039   -0.5515   -0.8820 N   0  0  0  0  0  0  0  0  0  0  0  0
    0.8112   -0.2037   -1.3907 C   0  0  0  0  0  0  0  0  0  0  0  0
   -0.1843    0.1808   -0.5375 C   0  0  0  0  0  0  0  0  0  0  0  0
   -1.4319    0.5482   -1.0209 C   0  0  0  0  0  0  0  0  0  0  0  0
   -2.4113    0.9304   -0.1288 C   0  0  0  0  0  0  0  0  0  0  0  0
   -3.6680    1.3025   -0.5882 O   0  0  0  0  0  0  0  0  0  0  0  0
   -4.8328    0.6356   -0.2131 C   0  0  0  0  0  0  0  0  0  0  0  0
   -5.8156    1.3605    0.4432 C   0  0  0  0  0  0  0  0  0  0  0  0
   -6.9775    0.7254    0.8253 C   0  0  0  0  0  0  0  0  0  0  0  0
   -7.1678   -0.6138    0.5618 C   0  0  0  0  0  0  0  0  0  0  0  0
   -8.3397   -1.1659    0.9705 F   0  0  0  0  0  0  0  0  0  0  0  0
   -6.2020   -1.3349   -0.0855 C   0  0  0  0  0  0  0  0  0  0  0  0
   -5.0425   -0.6880   -0.4633 C   0  0  0  0  0  0  0  0  0  0  0  0
   -4.0713   -1.3878   -1.1075 F   0  0  0  0  0  0  0  0  0  0  0  0
   -2.0964    0.9272    1.2055 C   0  0  0  0  0  0  0  0  0  0  0  0
   -2.9885    1.2763    2.0315 O   0  0  0  0  0  0  0  0  0  0  0  0
   -0.9045    0.5785    1.6983 N   0  0  0  0  0  0  0  0  0  0  0  0
   -0.6339    0.5966    3.1278 C   0  0  0  0  0  0  0  0  0  0  0  0
    0.0587    0.2021    0.8137 C   0  0  0  0  0  0  0  0  0  0  0  0
    1.2773   -0.1556    1.3008 N   0  0  0  0  0  0  0  0  0  0  0  0
  1  2  1  0
  2  3  1  0
  2  4  1  0
  4  5  1  0
  5  6  2  0
  5  7  1  0
  7  8  1  0
  8  9  1  0
  9 10  1  0
 10 11  2  0
 11 12  1  0
 12 13  2  0
 13 14  1  0
 14 15  2  0
 17 16  1  1
 17 18  1  0
 18 19  1  0
 19 20  1  0
 20 21  2  0
 21 22  1  0
 22 23  2  0
 17 24  1  0
 24 25  1  0
 25 26  2  0
 26 27  1  0
 27 28  2  0
 28 29  1  0
 29 30  2  0
 30 31  1  0
 31 32  1  0
 32 33  2  0
 33 34  1  0
 34 35  2  0
 35 36  1  0
 35 37  1  0
 37 38  2  0
 38 39  1  0
 30 40  1  0
 40 41  2  0
 40 42  1  0
 42 43  1  0
 42 44  1  0
 44 45  2  0
 15 10  1  0
 23 19  1  0
 45 25  1  0
 44 28  1  0
 38 32  1  0
M  END

