
     RDKit          3D

 43 46  0  0  0  0  0  0  0  0999 V2000
    4.3652   -2.4088   -0.1542 C   0  0  0  0  0  0  0  0  0  0  0  0
    4.7488   -0.8722   -0.6570 C   0  0  2  0  0  0  0  0  0  0  0  0
    6.0084   -0.7471    0.4267 C   0  0  0  0  0  0  0  0  0  0  0  0
    6.4775    0.6053    0.1045 N   0  0  0  0  0  0  0  0  0  0  0  0
    7.3916    0.8288   -0.8036 N   0  0  0  0  0  0  0  0  0  0  0  0
    7.6071    2.1467   -0.8708 C   0  0  0  0  0  0  0  0  0  0  0  0
    6.7840    2.6991    0.0345 N   0  0  0  0  0  0  0  0  0  0  0  0
    6.0907    1.7465    0.6323 N   0  0  0  0  0  0  0  0  0  0  0  0
    3.7185   -0.1984    0.3358 N   0  0  0  0  0  0  0  0  0  0  0  0
    2.4084   -0.6156    0.0855 C   0  0  0  0  0  0  0  0  0  0  0  0
    2.0892   -1.4813   -0.8828 N   0  0  0  0  0  0  0  0  0  0  0  0
    0.8062   -1.8377   -1.0660 C   0  0  0  0  0  0  0  0  0  0  0  0
   -0.2186   -1.3441   -0.2882 C   0  0  0  0  0  0  0  0  0  0  0  0
   -1.5427   -1.6853   -0.4457 C   0  0  0  0  0  0  0  0  0  0  0  0
   -2.5080   -1.1269    0.3978 C   0  0  0  0  0  0  0  0  0  0  0  0
   -3.8418   -1.4627    0.2486 O   0  0  0  0  0  0  0  0  0  0  0  0
   -4.7905   -0.4878   -0.0349 C   0  0  0  0  0  0  0  0  0  0  0  0
   -5.8363   -0.2922    0.8572 C   0  0  0  0  0  0  0  0  0  0  0  0
   -6.7647    0.6854    0.5474 C   0  0  0  0  0  0  0  0  0  0  0  0
   -6.6661    1.4444   -0.6022 C   0  0  0  0  0  0  0  0  0  0  0  0
   -7.6076    2.4074   -0.8775 F   0  0  0  0  0  0  0  0  0  0  0  0
   -5.6145    1.2268   -1.4706 C   0  0  0  0  0  0  0  0  0  0  0  0
   -4.6592    0.2496   -1.1912 C   0  0  0  0  0  0  0  0  0  0  0  0
   -3.6136    0.0022   -2.0123 F   0  0  0  0  0  0  0  0  0  0  0  0
   -2.1369   -0.2381    1.3838 C   0  0  0  0  0  0  0  0  0  0  0  0
   -3.0065    0.2801    2.1618 O   0  0  0  0  0  0  0  0  0  0  0  0
   -0.8338    0.0581    1.4918 N   0  0  0  0  0  0  0  0  0  0  0  0
   -0.4216    0.9933    2.5253 C   0  0  0  0  0  0  0  0  0  0  0  0
    0.1399   -0.4543    0.7013 C   0  0  0  0  0  0  0  0  0  0  0  0
    1.4269   -0.1212    0.8561 N   0  0  0  0  0  0  0  0  0  0  0  0
    4.0003    1.2748    0.0924 O   0  0  0  0  0  1  0  0  0  0  0  0
    4.0329   -0.1074    0.0858 C   0  0  0  0  0  0  0  0  0  0  0  0
    5.0893   -0.7965    0.0105 O   0  0  0  0  0  0  0  0  0  0  0  0
    2.7678   -0.8642    0.1727 C   0  0  0  0  0  0  0  0  0  0  0  0
    1.5836    0.0468    0.3385 C   0  0  0  0  0  0  0  0  0  0  0  0
    0.3161   -0.6802    0.4408 N   0  0  0  0  0  0  0  0  0  0  0  0
   -0.8581    0.0767    0.6311 C   0  0  0  0  0  0  0  0  0  0  0  0
   -0.8642    1.2898    0.7107 O   0  0  0  0  0  0  0  0  0  0  0  0
   -2.1761   -0.7870    0.7443 C   0  0  2  0  0  0  0  0  0  0  0  0
   -2.7125   -0.4185   -0.7981 C   0  0  0  0  0  0  0  0  0  0  0  0
   -3.8254    0.5002   -0.5948 C   0  0  0  0  0  0  0  0  0  0  0  0
   -4.3104    0.1160    0.7982 C   0  0  0  0  0  0  0  0  0  0  0  0
   -3.0433    0.3496    1.4346 N   0  0  0  0  0  0  0  0  0  0  0  0
  2  1  1  1
  2  3  1  0
  3  4  1  0
  4  5  1  0
  5  6  2  0
  6  7  1  0
  7  8  2  0
  2  9  1  0
  9 10  1  0
 10 11  2  0
 11 12  1  0
 12 13  2  0
 13 14  1  0
 14 15  2  0
 15 16  1  0
 16 17  1  0
 17 18  2  0
 18 19  1  0
 19 20  2  0
 20 21  1  0
 20 22  1  0
 22 23  2  0
 23 24  1  0
 15 25  1  0
 25 26  2  0
 25 27  1  0
 27 28  1  0
 27 29  1  0
 29 30  2  0
 31 32  1  0
 32 33  2  0
 32 34  1  0
 34 35  1  0
 35 36  1  0
 36 37  1  0
 37 38  2  0
 39 37  1  6
 39 40  1  0
 40 41  1  0
 41 42  1  0
 42 43  1  0
  8  4  1  0
 30 10  1  0
 43 39  1  0
 29 13  1  0
 23 17  1  0
M  RAD  1  31   2
M  END

