
     RDKit          3D

 43 45  0  0  0  0  0  0  0  0999 V2000
    4.0867    0.6873    0.7033 C   0  0  0  0  0  0  0  0  0  0  0  0
    3.7465   -0.3156   -0.3508 C   0  0  0  0  0  0  0  0  0  0  0  0
    3.1804    0.3161   -1.6005 C   0  0  0  0  0  0  0  0  0  0  0  0
    2.9042   -1.4554    0.1596 C   0  0  0  0  0  0  0  0  0  0  0  0
    1.5893   -0.9944    0.7239 C   0  0  0  0  0  0  0  0  0  0  0  0
    0.7855   -0.3011   -0.2585 N   0  0  0  0  0  0  0  0  0  0  0  0
   -0.4878    0.2231    0.0351 C   0  0  0  0  0  0  0  0  0  0  0  0
   -0.9019    0.0554    1.2212 O   0  0  0  0  0  0  0  0  0  0  0  0
   -1.3321    0.9355   -0.9471 C   0  0  0  0  0  0  0  0  0  0  0  0
   -2.6436    1.3538   -0.3674 C   0  0  0  0  0  0  0  0  0  0  0  0
   -3.3820    0.1695    0.0764 C   0  0  0  0  0  0  0  0  0  0  0  0
   -4.6161    0.3223    0.6625 O   0  0  0  0  0  1  0  0  0  0  0  0
   -2.9291   -0.9966   -0.0577 O   0  0  0  0  0  0  0  0  0  0  0  0
   -3.7188   -1.1030   -1.5092 C   0  0  0  0  0  0  0  0  0  0  0  0
   -4.3965   -0.5092   -0.1117 C   0  0  2  0  0  0  0  0  0  0  0  0
   -5.7079    0.1054   -0.9254 C   0  0  0  0  0  0  0  0  0  0  0  0
   -6.5174    0.7162    0.0956 N   0  0  0  0  0  0  0  0  0  0  0  0
   -7.4828    0.2483    0.8446 N   0  0  0  0  0  0  0  0  0  0  0  0
   -7.9371    1.2360    1.6703 C   0  0  0  0  0  0  0  0  0  0  0  0
   -7.2156    2.3117    1.3949 N   0  0  0  0  0  0  0  0  0  0  0  0
   -6.3667    1.9841    0.4468 N   0  0  0  0  0  0  0  0  0  0  0  0
   -3.5802    0.8430   -0.1962 N   0  0  0  0  0  0  0  0  0  0  0  0
   -2.1694    0.7117   -0.1784 C   0  0  0  0  0  0  0  0  0  0  0  0
   -1.3261    1.7507   -0.2419 N   0  0  0  0  0  0  0  0  0  0  0  0
    0.0152    1.6117   -0.2241 C   0  0  0  0  0  0  0  0  0  0  0  0
    0.5759    0.3558   -0.1373 C   0  0  0  0  0  0  0  0  0  0  0  0
    1.9125    0.1142   -0.1127 C   0  0  0  0  0  0  0  0  0  0  0  0
    2.3468   -1.1895   -0.0236 C   0  0  0  0  0  0  0  0  0  0  0  0
    3.6984   -1.4881    0.0048 O   0  0  0  0  0  0  0  0  0  0  0  0
    4.6185   -0.4514   -0.0580 C   0  0  0  0  0  0  0  0  0  0  0  0
    4.2247    0.8714   -0.1482 C   0  0  0  0  0  0  0  0  0  0  0  0
    5.1185    1.9207   -0.2121 C   0  0  0  0  0  0  0  0  0  0  0  0
    6.4793    1.6692   -0.1868 C   0  0  0  0  0  0  0  0  0  0  0  0
    7.3627    2.6993   -0.2495 F   0  0  0  0  0  0  0  0  0  0  0  0
    6.8794    0.3518   -0.0970 C   0  0  0  0  0  0  0  0  0  0  0  0
    5.9781   -0.6945   -0.0333 C   0  0  0  0  0  0  0  0  0  0  0  0
    6.3602   -1.9937    0.0552 F   0  0  0  0  0  0  0  0  0  0  0  0
    1.4697   -2.2523    0.0413 C   0  0  0  0  0  0  0  0  0  0  0  0
    1.9114   -3.4512    0.1236 O   0  0  0  0  0  0  0  0  0  0  0  0
    0.1517   -2.0019    0.0163 N   0  0  0  0  0  0  0  0  0  0  0  0
   -0.7768   -3.1270    0.0850 C   0  0  0  0  0  0  0  0  0  0  0  0
   -0.2792   -0.7294   -0.0708 C   0  0  0  0  0  0  0  0  0  0  0  0
   -1.6287   -0.5099   -0.0939 N   0  0  0  0  0  0  0  0  0  0  0  0
  1  2  1  0
  2  3  1  0
  2  4  1  0
  4  5  1  0
  5  6  1  0
  6  7  1  0
  7  8  2  0
  7  9  1  0
  9 10  1  0
 10 11  1  0
 11 12  1  0
 11 13  2  0
 15 14  1  6
 15 16  1  0
 16 17  1  0
 17 18  1  0
 18 19  2  0
 19 20  1  0
 20 21  2  0
 15 22  1  0
 22 23  1  0
 23 24  2  0
 24 25  1  0
 25 26  2  0
 26 27  1  0
 27 28  2  0
 28 29  1  0
 29 30  1  0
 30 31  2  0
 31 32  1  0
 32 33  2  0
 33 34  1  0
 33 35  1  0
 35 36  2  0
 36 37  1  0
 28 38  1  0
 38 39  2  0
 38 40  1  0
 40 41  1  0
 40 42  1  0
 42 43  2  0
 21 17  1  0
 43 23  1  0
 42 26  1  0
 36 30  1  0
M  RAD  1  12   2
M  END

