
     RDKit          3D

 43 45  0  0  0  0  0  0  0  0999 V2000
    6.1275    1.8399   -1.2677 C   0  0  0  0  0  0  0  0  0  0  0  0
    4.8472    2.2097   -0.2822 C   0  0  2  0  0  0  0  0  0  0  0  0
    5.3693    1.2754    0.9700 C   0  0  0  0  0  0  0  0  0  0  0  0
    5.4696   -0.0651    0.5330 N   0  0  0  0  0  0  0  0  0  0  0  0
    4.6178   -1.0758    0.5200 N   0  0  0  0  0  0  0  0  0  0  0  0
    5.1705   -2.1714    0.0022 C   0  0  0  0  0  0  0  0  0  0  0  0
    6.4376   -1.8201   -0.3247 N   0  0  0  0  0  0  0  0  0  0  0  0
    6.5890   -0.5725   -0.0015 N   0  0  0  0  0  0  0  0  0  0  0  0
    3.9171    1.0886   -0.8892 N   0  0  0  0  0  0  0  0  0  0  0  0
    2.6323    1.0647   -0.2762 C   0  0  0  0  0  0  0  0  0  0  0  0
    2.2288    1.8738    0.6937 N   0  0  0  0  0  0  0  0  0  0  0  0
    0.9927    1.8189    1.2531 C   0  0  0  0  0  0  0  0  0  0  0  0
    0.1382    0.8597    0.7628 C   0  0  0  0  0  0  0  0  0  0  0  0
   -1.1492    0.7313    1.2777 C   0  0  0  0  0  0  0  0  0  0  0  0
   -2.0100   -0.2254    0.7929 C   0  0  0  0  0  0  0  0  0  0  0  0
   -3.2913   -0.3773    1.2825 O   0  0  0  0  0  0  0  0  0  0  0  0
   -4.3913   -0.2290    0.4417 C   0  0  0  0  0  0  0  0  0  0  0  0
   -4.2173    0.0721   -0.8861 C   0  0  0  0  0  0  0  0  0  0  0  0
   -5.2429    0.2360   -1.7855 C   0  0  0  0  0  0  0  0  0  0  0  0
   -6.5334    0.0899   -1.3315 C   0  0  0  0  0  0  0  0  0  0  0  0
   -7.6063    0.2418   -2.1842 F   0  0  0  0  0  0  0  0  0  0  0  0
   -6.7171   -0.2121   -0.0012 C   0  0  0  0  0  0  0  0  0  0  0  0
   -5.6817   -0.3734    0.8879 C   0  0  0  0  0  0  0  0  0  0  0  0
   -5.9202   -0.6743    2.2048 F   0  0  0  0  0  0  0  0  0  0  0  0
   -1.5640   -1.0510   -0.2136 C   0  0  0  0  0  0  0  0  0  0  0  0
   -2.3290   -1.9265   -0.6683 O   0  0  0  0  0  0  0  0  0  0  0  0
   -0.3067   -0.9376   -0.7279 N   0  0  0  0  0  0  0  0  0  0  0  0
    0.1189   -1.8312   -1.7891 C   0  0  0  0  0  0  0  0  0  0  0  0
    0.5267    0.0032   -0.2448 C   0  0  0  0  0  0  0  0  0  0  0  0
    1.7769    0.1379   -0.7352 N   0  0  0  0  0  0  0  0  0  0  0  0
    4.7188    1.2619   -0.5260 N   0  0  0  0  0  0  0  0  0  0  0  0
    3.5430    0.4382   -0.5211 C   0  0  0  0  0  0  0  0  0  0  0  0
    2.7858    0.3688   -1.5194 O   0  0  0  0  0  0  0  0  0  0  0  0
    3.2935   -0.3186    0.7438 C   0  0  0  0  0  0  0  0  0  0  0  0
    2.0543   -1.1528    0.6767 C   0  0  0  0  0  0  0  0  0  0  0  0
    0.8353   -0.3500    0.4311 C   0  0  0  0  0  0  0  0  0  0  0  0
    0.9645    0.8946    0.3105 O   0  0  0  0  0  0  0  0  0  0  0  0
   -0.4595   -0.9113    0.3263 N   0  0  0  0  0  0  0  0  0  0  0  0
   -1.6427   -0.0813    0.0823 C   0  0  0  0  0  0  0  0  0  0  0  0
   -2.8890   -0.8977    0.0118 C   0  0  0  0  0  0  0  0  0  0  0  0
   -4.0278    0.0162   -0.2357 C   0  0  0  0  0  0  0  0  0  0  0  0
   -5.2970   -0.5229   -0.3397 O   0  0  0  0  0  1  0  0  0  0  0  0
   -3.8793    1.2547   -0.3532 O   0  0  0  0  0  0  0  0  0  0  0  0
  2  1  1  6
  2  3  1  0
  3  4  1  0
  4  5  1  0
  5  6  2  0
  6  7  1  0
  7  8  2  0
  2  9  1  0
  9 10  1  0
 10 11  2  0
 11 12  1  0
 12 13  2  0
 13 14  1  0
 14 15  2  0
 15 16  1  0
 16 17  1  0
 17 18  2  0
 18 19  1  0
 19 20  2  0
 20 21  1  0
 20 22  1  0
 22 23  2  0
 23 24  1  0
 15 25  1  0
 25 26  2  0
 25 27  1  0
 27 28  1  0
 27 29  1  0
 29 30  2  0
 31 32  1  0
 32 33  2  0
 32 34  1  0
 34 35  1  0
 35 36  1  0
 36 37  2  0
 36 38  1  0
 38 39  1  0
 39 40  1  0
 40 41  1  0
 41 42  1  0
 41 43  2  0
  8  4  1  0
 30 10  1  0
 29 13  1  0
 23 17  1  0
M  RAD  1  42   2
M  END

