
     RDKit          3D

 44 47  0  0  0  0  0  0  0  0999 V2000
   -4.3739   -0.4212   -2.1555 C   0  0  0  0  0  0  0  0  0  0  0  0
   -5.0952   -1.2559   -0.9186 C   0  0  2  0  0  0  0  0  0  0  0  0
   -6.2774   -0.1258   -0.7069 C   0  0  0  0  0  0  0  0  0  0  0  0
   -5.6441    1.1205   -0.3815 N   0  0  0  0  0  0  0  0  0  0  0  0
   -5.2100    2.1067   -1.0996 N   0  0  0  0  0  0  0  0  0  0  0  0
   -4.6934    3.0504   -0.3132 C   0  0  0  0  0  0  0  0  0  0  0  0
   -4.8184    2.6192    0.9453 N   0  0  0  0  0  0  0  0  0  0  0  0
   -5.3982    1.4447    0.8850 N   0  0  0  0  0  0  0  0  0  0  0  0
   -4.1254   -0.6671    0.1799 N   0  0  0  0  0  0  0  0  0  0  0  0
   -2.7505   -0.9908   -0.0788 C   0  0  0  0  0  0  0  0  0  0  0  0
   -2.3505   -1.7144   -1.1408 N   0  0  0  0  0  0  0  0  0  0  0  0
   -1.0466   -1.9953   -1.3453 C   0  0  0  0  0  0  0  0  0  0  0  0
   -0.0767   -1.5409   -0.4575 C   0  0  0  0  0  0  0  0  0  0  0  0
    1.2608   -1.8133   -0.6426 C   0  0  0  0  0  0  0  0  0  0  0  0
    2.2079   -1.3512    0.2532 C   0  0  0  0  0  0  0  0  0  0  0  0
    3.5368   -1.6211    0.0705 O   0  0  0  0  0  0  0  0  0  0  0  0
    4.4304   -0.5926   -0.0761 C   0  0  0  0  0  0  0  0  0  0  0  0
    5.4592   -0.4715    0.8306 C   0  0  0  0  0  0  0  0  0  0  0  0
    6.3518    0.5713    0.6686 C   0  0  0  0  0  0  0  0  0  0  0  0
    6.2282    1.4758   -0.3701 C   0  0  0  0  0  0  0  0  0  0  0  0
    7.1230    2.5043   -0.5155 F   0  0  0  0  0  0  0  0  0  0  0  0
    5.1919    1.3308   -1.2602 C   0  0  0  0  0  0  0  0  0  0  0  0
    4.3018    0.3039   -1.1117 C   0  0  0  0  0  0  0  0  0  0  0  0
    3.2733    0.1483   -1.9831 F   0  0  0  0  0  0  0  0  0  0  0  0
    1.7548   -0.6133    1.3280 C   0  0  0  0  0  0  0  0  0  0  0  0
    2.6234   -0.1953    2.1404 O   0  0  0  0  0  0  0  0  0  0  0  0
    0.4404   -0.3614    1.4850 N   0  0  0  0  0  0  0  0  0  0  0  0
   -0.0229    0.4158    2.6196 C   0  0  0  0  0  0  0  0  0  0  0  0
   -0.5012   -0.8000    0.6271 C   0  0  0  0  0  0  0  0  0  0  0  0
   -1.7994   -0.5607    0.7675 N   0  0  0  0  0  0  0  0  0  0  0  0
   -2.0435    1.0609   -0.7952 O   0  0  0  0  0  0  0  0  0  0  0  0
   -1.6954    0.8275    0.3826 C   0  0  0  0  0  0  0  0  0  0  0  0
   -2.5584   -0.0361    1.2176 C   0  0  0  0  0  0  0  0  0  0  0  0
   -3.7444   -0.4808    0.4325 C   0  0  0  0  0  0  0  0  0  0  0  0
   -4.5360   -1.3003    1.2698 O   0  0  0  0  0  0  0  0  0  0  0  0
   -0.4825    1.4032    0.8703 N   0  0  0  0  0  0  0  0  0  0  0  0
    0.3348    2.2445    0.0186 C   0  0  0  0  0  0  0  0  0  0  0  0
    0.7505    1.4005   -1.1778 C   0  0  0  0  0  0  0  0  0  0  0  0
    1.5274    0.2082   -0.7685 C   0  0  0  0  0  0  0  0  0  0  0  0
    0.9438   -1.0067   -0.4717 C   0  0  0  0  0  0  0  0  0  0  0  0
    1.7569   -2.0578   -0.0997 C   0  0  0  0  0  0  0  0  0  0  0  0
    3.1358   -1.9065   -0.0225 C   0  0  0  0  0  0  0  0  0  0  0  0
    3.7140   -0.6949   -0.3188 C   0  0  0  0  0  0  0  0  0  0  0  0
    2.8970    0.3383   -0.6860 C   0  0  0  0  0  0  0  0  0  0  0  0
  2  1  1  6
  2  3  1  0
  3  4  1  0
  4  5  1  0
  5  6  2  0
  6  7  1  0
  7  8  2  0
  2  9  1  0
  9 10  1  0
 10 11  2  0
 11 12  1  0
 12 13  2  0
 13 14  1  0
 14 15  2  0
 15 16  1  0
 16 17  1  0
 17 18  2  0
 18 19  1  0
 19 20  2  0
 20 21  1  0
 20 22  1  0
 22 23  2  0
 23 24  1  0
 15 25  1  0
 25 26  2  0
 25 27  1  0
 27 28  1  0
 27 29  1  0
 29 30  2  0
 31 32  2  0
 32 33  1  0
 33 34  1  0
 34 35  1  0
 32 36  1  0
 36 37  1  0
 37 38  1  0
 38 39  1  0
 39 40  2  0
 40 41  1  0
 41 42  2  0
 42 43  1  0
 43 44  2  0
  8  4  1  0
 30 10  1  0
 44 39  1  0
 29 13  1  0
 23 17  1  0
M  END

