
     RDKit          3D

 44 46  0  0  0  0  0  0  0  0999 V2000
   -4.0429   -0.8126   -1.4713 C   0  0  0  0  0  0  0  0  0  0  0  0
   -3.3149    0.4594   -1.0822 C   0  0  0  0  0  0  0  0  0  0  0  0
   -4.2945    1.6062   -1.3506 C   0  0  0  0  0  0  0  0  0  0  0  0
   -3.1301    0.4242    0.4159 C   0  0  0  0  0  0  0  0  0  0  0  0
   -2.3518   -0.7168    0.9183 C   0  0  0  0  0  0  0  0  0  0  0  0
   -0.9686   -0.8046    0.3965 C   0  0  0  0  0  0  0  0  0  0  0  0
   -0.5952    0.0823   -0.4084 O   0  0  0  0  0  0  0  0  0  0  0  0
   -0.0491   -1.8092    0.7396 N   0  0  0  0  0  0  0  0  0  0  0  0
    1.2912   -1.9874    0.3067 C   0  0  0  0  0  0  0  0  0  0  0  0
    2.2806   -0.9434    0.5999 C   0  0  0  0  0  0  0  0  0  0  0  0
    2.0458    0.4160    0.0517 C   0  0  0  0  0  0  0  0  0  0  0  0
    3.1469    1.3435    0.4476 C   0  0  0  0  0  0  0  0  0  0  0  0
    4.5040    0.8820   -0.0568 C   0  0  0  0  0  0  0  0  0  0  0  0
    5.4786    1.8605    0.3910 N   0  0  0  0  0  4  0  0  0  0  0  0
    5.7439   -2.0462    1.1019 C   0  0  0  0  0  0  0  0  0  0  0  0
    4.1581   -1.9482    0.6272 C   0  0  2  0  0  0  0  0  0  0  0  0
    4.4919   -1.7074   -0.9685 C   0  0  0  0  0  0  0  0  0  0  0  0
    5.2667   -0.5280   -1.1002 N   0  0  0  0  0  0  0  0  0  0  0  0
    4.9442    0.7366   -1.2739 N   0  0  0  0  0  0  0  0  0  0  0  0
    6.0714    1.4926   -1.3406 C   0  0  0  0  0  0  0  0  0  0  0  0
    7.0915    0.6606   -1.2037 N   0  0  0  0  0  0  0  0  0  0  0  0
    6.6041   -0.5431   -1.0607 N   0  0  0  0  0  0  0  0  0  0  0  0
    4.0336   -0.4110    0.9546 N   0  0  0  0  0  0  0  0  0  0  0  0
    2.7146    0.0709    0.6551 C   0  0  0  0  0  0  0  0  0  0  0  0
    2.4696    1.3735    0.8886 N   0  0  0  0  0  0  0  0  0  0  0  0
    1.2625    1.8927    0.6332 C   0  0  0  0  0  0  0  0  0  0  0  0
    0.2541    1.1330    0.1353 C   0  0  0  0  0  0  0  0  0  0  0  0
   -1.0074    1.6120   -0.1468 C   0  0  0  0  0  0  0  0  0  0  0  0
   -1.9852    0.7799   -0.6524 C   0  0  0  0  0  0  0  0  0  0  0  0
   -3.2635    1.2583   -0.9399 O   0  0  0  0  0  0  0  0  0  0  0  0
   -4.3727    0.7066   -0.2867 C   0  0  0  0  0  0  0  0  0  0  0  0
   -4.2265   -0.3061    0.6405 C   0  0  0  0  0  0  0  0  0  0  0  0
   -5.3078   -0.8572    1.2896 C   0  0  0  0  0  0  0  0  0  0  0  0
   -6.5594   -0.3681    0.9888 C   0  0  0  0  0  0  0  0  0  0  0  0
   -7.6756   -0.8415    1.5698 F   0  0  0  0  0  0  0  0  0  0  0  0
   -6.7103    0.6474    0.0596 C   0  0  0  0  0  0  0  0  0  0  0  0
   -5.6246    1.1972   -0.5889 C   0  0  0  0  0  0  0  0  0  0  0  0
   -5.7498    2.1783   -1.4892 F   0  0  0  0  0  0  0  0  0  0  0  0
   -1.6736   -0.5472   -0.8708 C   0  0  0  0  0  0  0  0  0  0  0  0
   -2.5684   -1.3019   -1.3318 O   0  0  0  0  0  0  0  0  0  0  0  0
   -0.4453   -1.0219   -0.5981 N   0  0  0  0  0  0  0  0  0  0  0  0
   -0.1636   -2.4309   -0.8455 C   0  0  0  0  0  0  0  0  0  0  0  0
    0.5006   -0.2015   -0.1054 C   0  0  0  0  0  0  0  0  0  0  0  0
    1.7269   -0.6795    0.1659 N   0  0  0  0  0  0  0  0  0  0  0  0
  1  2  1  0
  2  3  1  0
  2  4  1  0
  4  5  1  0
  5  6  1  0
  6  7  2  0
  6  8  1  0
  8  9  1  0
  9 10  1  0
 10 11  1  0
 11 12  1  0
 12 13  1  0
 13 14  1  0
 16 15  1  1
 16 17  1  0
 17 18  1  0
 18 19  1  0
 19 20  2  0
 20 21  1  0
 21 22  2  0
 16 23  1  0
 23 24  1  0
 24 25  2  0
 25 26  1  0
 26 27  2  0
 27 28  1  0
 28 29  2  0
 29 30  1  0
 30 31  1  0
 31 32  2  0
 32 33  1  0
 33 34  2  0
 34 35  1  0
 34 36  1  0
 36 37  2  0
 37 38  1  0
 29 39  1  0
 39 40  2  0
 39 41  1  0
 41 42  1  0
 41 43  1  0
 43 44  2  0
 22 18  1  0
 44 24  1  0
 43 27  1  0
 37 31  1  0
M  CHG  1  14   1
M  END

