
     RDKit          3D

 43 45  0  0  0  0  0  0  0  0999 V2000
    3.5307   -1.5247    1.2225 C   0  0  0  0  0  0  0  0  0  0  0  0
    3.7361   -0.0979    0.6977 C   0  0  0  0  0  0  0  0  0  0  0  0
    2.5387   -0.0228   -0.4328 C   0  0  2  0  0  0  0  0  0  0  0  0
    2.9371    1.5381   -0.8483 C   0  0  0  0  0  0  0  0  0  0  0  0
    1.4064    0.4683    0.6475 C   0  0  0  0  0  0  0  0  0  0  0  0
    0.1798    0.6170   -0.1440 C   0  0  0  0  0  0  0  0  0  0  0  0
    0.1612    0.3834   -1.3637 O   0  0  0  0  0  0  0  0  0  0  0  0
   -1.0653    1.0386    0.4387 N   0  0  0  0  0  0  0  0  0  0  0  0
   -2.2725    1.1785   -0.3732 C   0  0  0  0  0  0  0  0  0  0  0  0
   -2.5673   -0.1740   -0.9729 C   0  0  0  0  0  0  0  0  0  0  0  0
   -2.7901   -1.2001    0.1007 C   0  0  0  0  0  0  0  0  0  0  0  0
   -3.0700   -2.4849   -0.2916 O   0  0  0  0  0  1  0  0  0  0  0  0
   -2.7249   -0.9037    1.3193 O   0  0  0  0  0  0  0  0  0  0  0  0
    4.3143    2.3354    1.2723 C   0  0  0  0  0  0  0  0  0  0  0  0
    4.7954    0.7306    1.2598 C   0  0  2  0  0  0  0  0  0  0  0  0
    6.1041    1.0954    0.2820 C   0  0  0  0  0  0  0  0  0  0  0  0
    6.7591   -0.1703    0.0816 N   0  0  0  0  0  0  0  0  0  0  0  0
    7.6993   -0.6561    0.8440 N   0  0  0  0  0  0  0  0  0  0  0  0
    8.0489   -1.8529    0.3259 C   0  0  0  0  0  0  0  0  0  0  0  0
    7.2621   -2.0225   -0.7666 N   0  0  0  0  0  0  0  0  0  0  0  0
    6.4783   -0.9913   -0.9082 N   0  0  0  0  0  0  0  0  0  0  0  0
    3.9099    0.2968    0.0376 N   0  0  0  0  0  0  0  0  0  0  0  0
    2.5285    0.4360    0.1195 C   0  0  0  0  0  0  0  0  0  0  0  0
    2.0420    0.9448    1.2691 N   0  0  0  0  0  0  0  0  0  0  0  0
    0.7481    1.1477    1.5228 C   0  0  0  0  0  0  0  0  0  0  0  0
   -0.1374    0.8014    0.5137 C   0  0  0  0  0  0  0  0  0  0  0  0
   -1.4609    0.9626    0.6610 C   0  0  0  0  0  0  0  0  0  0  0  0
   -2.3961    0.6086   -0.3756 C   0  0  0  0  0  0  0  0  0  0  0  0
   -3.6512    0.8435   -0.0404 O   0  0  0  0  0  0  0  0  0  0  0  0
   -4.8104    0.2447    0.1818 C   0  0  0  0  0  0  0  0  0  0  0  0
   -5.2903    0.3235    1.5363 C   0  0  0  0  0  0  0  0  0  0  0  0
   -6.4669   -0.2535    1.8749 C   0  0  0  0  0  0  0  0  0  0  0  0
   -7.2771   -0.9372    0.9986 C   0  0  0  0  0  0  0  0  0  0  0  0
   -8.4428   -1.4858    1.4302 F   0  0  0  0  0  0  0  0  0  0  0  0
   -6.8369   -1.0207   -0.2913 C   0  0  0  0  0  0  0  0  0  0  0  0
   -5.6177   -0.4315   -0.6783 C   0  0  0  0  0  0  0  0  0  0  0  0
   -5.2604   -0.5208   -1.9815 F   0  0  0  0  0  0  0  0  0  0  0  0
   -1.8739    0.0976   -1.5267 C   0  0  0  0  0  0  0  0  0  0  0  0
   -2.5926   -0.2408   -2.4943 O   0  0  0  0  0  0  0  0  0  0  0  0
   -0.5261   -0.0547   -1.6463 N   0  0  0  0  0  0  0  0  0  0  0  0
   -0.0533   -0.6123   -2.9181 C   0  0  0  0  0  0  0  0  0  0  0  0
    0.3411    0.2774   -0.6744 C   0  0  0  0  0  0  0  0  0  0  0  0
    1.6629    0.1045   -0.8497 N   0  0  0  0  0  0  0  0  0  0  0  0
  1  2  1  0
  2  3  1  0
  3  4  1  6
  3  5  1  0
  5  6  1  0
  6  7  2  0
  6  8  1  0
  8  9  1  0
  9 10  1  0
 10 11  1  0
 11 12  1  0
 11 13  2  0
 15 14  1  6
 15 16  1  0
 16 17  1  0
 17 18  1  0
 18 19  2  0
 19 20  1  0
 20 21  2  0
 15 22  1  0
 22 23  1  0
 23 24  2  0
 24 25  1  0
 25 26  2  0
 26 27  1  0
 27 28  2  0
 28 29  1  0
 29 30  1  0
 30 31  2  0
 31 32  1  0
 32 33  2  0
 33 34  1  0
 33 35  1  0
 35 36  2  0
 36 37  1  0
 28 38  1  0
 38 39  2  0
 38 40  1  0
 40 41  1  0
 40 42  1  0
 42 43  2  0
 21 17  1  0
 43 23  1  0
 42 26  1  0
 36 30  1  0
M  RAD  1  12   2
M  END

