
     RDKit          3D

 43 45  0  0  0  0  0  0  0  0999 V2000
   -3.6028    2.2901   -1.5491 C   0  0  0  0  0  0  0  0  0  0  0  0
   -4.3674    1.2108   -0.2844 S   0  0  0  0  0  0  0  0  0  0  0  0
   -3.0575    0.0669    0.2805 C   0  0  0  0  0  0  0  0  0  0  0  0
   -2.7277   -0.8123   -0.9253 C   0  0  0  0  0  0  0  0  0  0  0  0
   -1.6464   -1.8192   -0.6013 C   0  0  0  0  0  0  0  0  0  0  0  0
   -0.4227   -1.1048   -0.1951 C   0  0  0  0  0  0  0  0  0  0  0  0
   -0.3886    0.1521   -0.1597 O   0  0  0  0  0  0  0  0  0  0  0  0
    0.7295   -1.8199    0.1606 N   0  0  0  0  0  0  0  0  0  0  0  0
    1.9202   -1.1058    0.5562 C   0  0  0  0  0  0  0  0  0  0  0  0
    2.3650   -0.2081   -0.6044 C   0  0  0  0  0  0  0  0  0  0  0  0
    3.6213    0.5037   -0.1002 C   0  0  0  0  0  0  0  0  0  0  0  0
    3.3158    1.3219    1.1298 C   0  0  0  0  0  0  0  0  0  0  0  0
    4.2613    1.3245   -1.1916 C   0  0  0  0  0  0  0  0  0  0  0  0
   -3.9310   -1.6450   -2.1934 C   0  0  0  0  0  0  0  0  0  0  0  0
   -4.7553   -1.3894   -0.7588 C   0  0  2  0  0  0  0  0  0  0  0  0
   -5.8109   -0.3058   -1.4880 C   0  0  0  0  0  0  0  0  0  0  0  0
   -6.6794    0.0850   -0.3886 N   0  0  0  0  0  0  0  0  0  0  0  0
   -6.4062    1.1275    0.4021 N   0  0  0  0  0  0  0  0  0  0  0  0
   -7.4043    1.2083    1.3063 C   0  0  0  0  0  0  0  0  0  0  0  0
   -8.2528    0.1992    1.0239 N   0  0  0  0  0  0  0  0  0  0  0  0
   -7.8083   -0.4849   -0.0108 N   0  0  0  0  0  0  0  0  0  0  0  0
   -3.7608   -0.2498   -0.2894 N   0  0  0  0  0  0  0  0  0  0  0  0
   -2.4125   -0.6408   -0.1484 C   0  0  0  0  0  0  0  0  0  0  0  0
   -1.9627   -1.8801   -0.3852 N   0  0  0  0  0  0  0  0  0  0  0  0
   -0.6610   -2.1670   -0.2259 C   0  0  0  0  0  0  0  0  0  0  0  0
    0.2743   -1.2373    0.1793 C   0  0  0  0  0  0  0  0  0  0  0  0
    1.6129   -1.5249    0.3450 C   0  0  0  0  0  0  0  0  0  0  0  0
    2.4879   -0.5406    0.7534 C   0  0  0  0  0  0  0  0  0  0  0  0
    3.8494   -0.8214    0.9250 O   0  0  0  0  0  0  0  0  0  0  0  0
    4.7354   -0.1026    0.1517 C   0  0  0  0  0  0  0  0  0  0  0  0
    4.3333    0.8630   -0.7653 C   0  0  0  0  0  0  0  0  0  0  0  0
    5.2312    1.5730   -1.5307 C   0  0  0  0  0  0  0  0  0  0  0  0
    6.5667    1.2967   -1.3617 C   0  0  0  0  0  0  0  0  0  0  0  0
    7.4391    2.0115   -2.1299 F   0  0  0  0  0  0  0  0  0  0  0  0
    6.9650    0.3490   -0.4620 C   0  0  0  0  0  0  0  0  0  0  0  0
    6.0845   -0.3748    0.3157 C   0  0  0  0  0  0  0  0  0  0  0  0
    6.5259   -1.3148    1.2045 F   0  0  0  0  0  0  0  0  0  0  0  0
    1.9703    0.7157    0.9824 C   0  0  0  0  0  0  0  0  0  0  0  0
    2.7426    1.6486    1.3593 O   0  0  0  0  0  0  0  0  0  0  0  0
    0.6591    0.9631    0.8113 N   0  0  0  0  0  0  0  0  0  0  0  0
    0.1259    2.3111    1.0609 C   0  0  0  0  0  0  0  0  0  0  0  0
   -0.2243    0.0391    0.4168 C   0  0  0  0  0  0  0  0  0  0  0  0
   -1.5341    0.2884    0.2464 N   0  0  0  0  0  0  0  0  0  0  0  0
  1  2  1  0
  2  3  1  0
  3  4  1  0
  4  5  1  0
  5  6  1  0
  6  7  2  0
  6  8  1  0
  8  9  1  0
  9 10  1  0
 10 11  1  0
 11 12  1  0
 11 13  1  0
 15 14  1  6
 15 16  1  0
 16 17  1  0
 17 18  1  0
 18 19  2  0
 19 20  1  0
 20 21  2  0
 15 22  1  0
 22 23  1  0
 23 24  2  0
 24 25  1  0
 25 26  2  0
 26 27  1  0
 27 28  2  0
 28 29  1  0
 29 30  1  0
 30 31  2  0
 31 32  1  0
 32 33  2  0
 33 34  1  0
 33 35  1  0
 35 36  2  0
 36 37  1  0
 28 38  1  0
 38 39  2  0
 38 40  1  0
 40 41  1  0
 40 42  1  0
 42 43  2  0
 21 17  1  0
 43 23  1  0
 42 26  1  0
 36 30  1  0
M  END

