
     RDKit          3D

 39 42  0  0  0  0  0  0  0  0999 V2000
    3.0915   -0.6513    0.3683 C   0  0  0  0  0  0  0  0  0  0  0  0
    2.0370    0.0243    1.2096 C   0  0  0  0  0  0  0  0  0  0  0  0
    0.9604    0.6276    0.3862 C   0  0  0  0  0  0  0  0  0  0  0  0
    1.2155    1.7217   -0.1757 O   0  0  0  0  0  0  0  0  0  0  0  0
   -0.3075   -0.0009    0.2363 N   0  0  0  0  0  0  0  0  0  0  0  0
   -0.7321   -1.2471    0.8201 C   0  0  0  0  0  0  0  0  0  0  0  0
   -2.2361   -1.1788    0.9159 C   0  0  0  0  0  0  0  0  0  0  0  0
   -2.6020    0.2124    0.4010 C   0  0  0  0  0  0  0  0  0  0  0  0
   -1.4268    0.4921   -0.5382 C   0  0  0  0  0  0  0  0  0  0  0  0
    4.4037    2.8515    0.1475 C   0  0  0  0  0  0  0  0  0  0  0  0
    5.1489    1.4451    0.6204 C   0  0  2  0  0  0  0  0  0  0  0  0
    4.8669    0.6879   -0.8235 C   0  0  0  0  0  0  0  0  0  0  0  0
    5.4715   -0.6016   -0.5855 N   0  0  0  0  0  0  0  0  0  0  0  0
    4.9876   -1.7139   -0.1007 N   0  0  0  0  0  0  0  0  0  0  0  0
    5.9770   -2.6482   -0.0815 C   0  0  0  0  0  0  0  0  0  0  0  0
    7.0839   -2.0686   -0.5718 N   0  0  0  0  0  0  0  0  0  0  0  0
    6.7613   -0.8350   -0.8706 N   0  0  0  0  0  0  0  0  0  0  0  0
    3.8755    0.8533    1.3307 N   0  0  0  0  0  0  0  0  0  0  0  0
    2.7045    0.6732    0.6174 C   0  0  0  0  0  0  0  0  0  0  0  0
    2.5259    0.9647   -0.6883 N   0  0  0  0  0  0  0  0  0  0  0  0
    1.3547    0.7612   -1.3137 C   0  0  0  0  0  0  0  0  0  0  0  0
    0.2877    0.2361   -0.6091 C   0  0  0  0  0  0  0  0  0  0  0  0
   -0.9432    0.0139   -1.2350 C   0  0  0  0  0  0  0  0  0  0  0  0
   -1.9812   -0.5117   -0.4941 C   0  0  0  0  0  0  0  0  0  0  0  0
   -3.2120   -0.7412   -1.0927 O   0  0  0  0  0  0  0  0  0  0  0  0
   -4.3200   -0.0795   -0.5811 C   0  0  0  0  0  0  0  0  0  0  0  0
   -4.2569    0.7904    0.4878 C   0  0  0  0  0  0  0  0  0  0  0  0
   -5.3574    1.4261    0.9700 C   0  0  0  0  0  0  0  0  0  0  0  0
   -6.5765    1.1865    0.3620 C   0  0  0  0  0  0  0  0  0  0  0  0
   -7.6784    1.8175    0.8381 F   0  0  0  0  0  0  0  0  0  0  0  0
   -6.6826    0.3239   -0.7091 C   0  0  0  0  0  0  0  0  0  0  0  0
   -5.5566   -0.2899   -1.1582 C   0  0  0  0  0  0  0  0  0  0  0  0
   -5.6636   -1.1359   -2.2096 F   0  0  0  0  0  0  0  0  0  0  0  0
   -1.7448   -0.7885    0.8248 C   0  0  0  0  0  0  0  0  0  0  0  0
   -2.7038   -1.2693    1.4915 O   0  0  0  0  0  0  0  0  0  0  0  0
   -0.5654   -0.5770    1.4299 N   0  0  0  0  0  0  0  0  0  0  0  0
   -0.3301   -0.8760    2.8309 C   0  0  0  0  0  0  0  0  0  0  0  0
    0.4667   -0.0620    0.7217 C   0  0  0  0  0  0  0  0  0  0  0  0
    1.6568    0.1669    1.2744 N   0  0  0  0  0  0  0  0  0  0  0  0
  1  2  1  0
  2  3  1  0
  3  4  2  0
  3  5  1  0
  5  6  1  0
  6  7  1  0
  7  8  1  0
  8  9  1  0
 11 10  1  6
 11 12  1  0
 12 13  1  0
 13 14  1  0
 14 15  2  0
 15 16  1  0
 16 17  2  0
 11 18  1  0
 18 19  1  0
 19 20  2  0
 20 21  1  0
 21 22  2  0
 22 23  1  0
 23 24  2  0
 24 25  1  0
 25 26  1  0
 26 27  2  0
 27 28  1  0
 28 29  2  0
 29 30  1  0
 29 31  1  0
 31 32  2  0
 32 33  1  0
 24 34  1  0
 34 35  2  0
 34 36  1  0
 36 37  1  0
 36 38  1  0
 38 39  2  0
  9  5  1  0
 17 13  1  0
 39 19  1  0
 38 22  1  0
 32 26  1  0
M  END

