
     RDKit          3D

 42 44  0  0  0  0  0  0  0  0999 V2000
   -3.5453   -1.4705   -0.0241 C   0  0  0  0  0  0  0  0  0  0  0  0
   -3.3590   -0.0432   -0.4061 C   0  0  0  0  0  0  0  0  0  0  0  0
   -4.3024    0.9133    0.2414 C   0  0  0  0  0  0  0  0  0  0  0  0
   -1.9242    0.4213   -0.3639 C   0  0  0  0  0  0  0  0  0  0  0  0
   -1.0289   -0.3417   -1.2795 C   0  0  0  0  0  0  0  0  0  0  0  0
    0.3079    0.1708   -1.1688 N   0  0  0  0  0  0  0  0  0  0  0  0
    1.0257    0.1584    0.0692 C   0  0  0  0  0  0  0  0  0  0  0  0
    0.4687   -0.3149    1.0874 O   0  0  0  0  0  0  0  0  0  0  0  0
    2.4032    0.7194    0.0481 C   0  0  0  0  0  0  0  0  0  0  0  0
    2.8841    0.5263    1.6354 C   0  0  1  0  0  0  0  0  0  0  0  0
    2.6878   -1.1467    1.5532 C   0  0  0  0  0  0  0  0  0  0  0  0
    4.3823    0.4075    1.2263 O   0  0  0  0  0  0  0  0  0  0  0  0
   -5.1086    1.4534   -0.6465 C   0  0  0  0  0  0  0  0  0  0  0  0
   -5.2334    0.7056   -2.0608 C   0  0  2  0  0  0  0  0  0  0  0  0
   -5.4671   -0.7920   -1.6131 C   0  0  0  0  0  0  0  0  0  0  0  0
   -4.4792   -1.3699   -0.8283 N   0  0  0  0  0  0  0  0  0  0  0  0
   -4.5203   -1.3597    0.5208 N   0  0  0  0  0  0  0  0  0  0  0  0
   -3.4628   -1.9750    1.0321 C   0  0  0  0  0  0  0  0  0  0  0  0
   -2.7376   -2.3831   -0.0073 N   0  0  0  0  0  0  0  0  0  0  0  0
   -3.3599   -2.0130   -1.1082 N   0  0  0  0  0  0  0  0  0  0  0  0
   -3.8015    0.6764   -2.5059 N   0  0  0  0  0  0  0  0  0  0  0  0
   -2.7130    0.8550   -1.6432 C   0  0  0  0  0  0  0  0  0  0  0  0
   -2.9188    1.0898   -0.3473 N   0  0  0  0  0  0  0  0  0  0  0  0
   -1.9453    1.2715    0.5459 C   0  0  0  0  0  0  0  0  0  0  0  0
   -0.6441    1.2108    0.0897 C   0  0  0  0  0  0  0  0  0  0  0  0
    0.3931    1.3912    0.9698 C   0  0  0  0  0  0  0  0  0  0  0  0
    1.6888    1.3282    0.5022 C   0  0  0  0  0  0  0  0  0  0  0  0
    2.7038    1.5151    1.4199 O   0  0  0  0  0  0  0  0  0  0  0  0
    3.6477    0.5338    1.6518 C   0  0  0  0  0  0  0  0  0  0  0  0
    4.9702    0.8665    1.4050 C   0  0  0  0  0  0  0  0  0  0  0  0
    5.9578   -0.0851    1.6224 C   0  0  0  0  0  0  0  0  0  0  0  0
    5.6047   -1.3346    2.0768 C   0  0  0  0  0  0  0  0  0  0  0  0
    6.5676   -2.2521    2.2853 F   0  0  0  0  0  0  0  0  0  0  0  0
    4.2916   -1.6616    2.3206 C   0  0  0  0  0  0  0  0  0  0  0  0
    3.3013   -0.7183    2.1063 C   0  0  0  0  0  0  0  0  0  0  0  0
    1.9932   -1.0192    2.3409 F   0  0  0  0  0  0  0  0  0  0  0  0
    1.9096    1.0856   -0.8376 C   0  0  0  0  0  0  0  0  0  0  0  0
    3.1133    1.0412   -1.1953 O   0  0  0  0  0  0  0  0  0  0  0  0
    0.8854    0.9131   -1.6759 N   0  0  0  0  0  0  0  0  0  0  0  0
    1.1864    0.6613   -3.0731 C   0  0  0  0  0  0  0  0  0  0  0  0
   -0.3958    0.9676   -1.2557 C   0  0  0  0  0  0  0  0  0  0  0  0
   -1.4272    0.7955   -2.0914 N   0  0  0  0  0  0  0  0  0  0  0  0
  1  2  1  0
  2  3  1  0
  2  4  1  0
  4  5  1  0
  5  6  1  0
  6  7  1  0
  7  8  2  0
  7  9  1  0
  9 10  1  0
 10 11  1  6
 10 12  1  0
 14 13  1  1
 14 15  1  0
 15 16  1  0
 16 17  1  0
 17 18  2  0
 18 19  1  0
 19 20  2  0
 14 21  1  0
 21 22  1  0
 22 23  2  0
 23 24  1  0
 24 25  2  0
 25 26  1  0
 26 27  2  0
 27 28  1  0
 28 29  1  0
 29 30  2  0
 30 31  1  0
 31 32  2  0
 32 33  1  0
 32 34  1  0
 34 35  2  0
 35 36  1  0
 27 37  1  0
 37 38  2  0
 37 39  1  0
 39 40  1  0
 39 41  1  0
 41 42  2  0
 20 16  1  0
 42 22  1  0
 41 25  1  0
 35 29  1  0
M  END

