
     RDKit          3D

 44 46  0  0  0  0  0  0  0  0999 V2000
   -2.8146    0.6277    1.2114 C   0  0  0  0  0  0  0  0  0  0  0  0
   -3.4391   -0.5753    0.6058 C   0  0  0  0  0  0  0  0  0  0  0  0
   -4.9401   -0.5309    0.7986 C   0  0  0  0  0  0  0  0  0  0  0  0
   -3.1311   -0.8653   -0.7845 C   0  0  0  0  0  0  0  0  0  0  0  0
   -1.7713   -1.1171   -1.2501 C   0  0  0  0  0  0  0  0  0  0  0  0
   -0.8598    0.0044   -1.1159 C   0  0  0  0  0  0  0  0  0  0  0  0
   -1.2579    1.1387   -0.7977 O   0  0  0  0  0  0  0  0  0  0  0  0
    0.5471   -0.1751   -1.3520 N   0  0  0  0  0  0  0  0  0  0  0  0
    1.4261    0.9921   -1.2028 C   0  0  0  0  0  0  0  0  0  0  0  0
    2.8455    0.6214   -1.4850 C   0  0  0  0  0  0  0  0  0  0  0  0
    3.3855   -0.4413   -0.5757 C   0  0  0  0  0  0  0  0  0  0  0  0
    3.3538   -0.0288    0.8572 C   0  0  0  0  0  0  0  0  0  0  0  0
    2.8652    1.2154    1.2349 O   0  0  0  0  0  1  0  0  0  0  0  0
    3.7906   -0.8659    1.6888 O   0  0  0  0  0  0  0  0  0  0  0  0
    3.7704   -0.3294   -2.0994 C   0  0  0  0  0  0  0  0  0  0  0  0
    4.5637   -1.3177   -1.0642 C   0  0  1  0  0  0  0  0  0  0  0  0
    4.1662   -0.5362    0.2985 C   0  0  0  0  0  0  0  0  0  0  0  0
    4.6541    0.7902    0.2317 N   0  0  0  0  0  0  0  0  0  0  0  0
    5.8693    1.0576    0.6855 N   0  0  0  0  0  0  0  0  0  0  0  0
    6.1564    2.3658    0.5384 C   0  0  0  0  0  0  0  0  0  0  0  0
    5.0825    2.9165   -0.0235 N   0  0  0  0  0  0  0  0  0  0  0  0
    4.2134    1.9372   -0.1870 N   0  0  0  0  0  0  0  0  0  0  0  0
    3.4673   -2.3944   -1.0002 N   0  0  0  0  0  0  0  0  0  0  0  0
    2.1939   -1.9075   -0.6519 C   0  0  0  0  0  0  0  0  0  0  0  0
    2.0182   -0.6038   -0.4141 N   0  0  0  0  0  0  0  0  0  0  0  0
    0.8599   -0.0185   -0.0754 C   0  0  0  0  0  0  0  0  0  0  0  0
   -0.2398   -0.8380    0.0353 C   0  0  0  0  0  0  0  0  0  0  0  0
   -1.4352   -0.3068    0.3737 C   0  0  0  0  0  0  0  0  0  0  0  0
   -2.5452   -1.1182    0.4878 C   0  0  0  0  0  0  0  0  0  0  0  0
   -3.7951   -0.5980    0.8362 O   0  0  0  0  0  0  0  0  0  0  0  0
   -3.9331    0.7488    1.0725 C   0  0  0  0  0  0  0  0  0  0  0  0
   -4.3586    1.2386    2.2689 C   0  0  0  0  0  0  0  0  0  0  0  0
   -4.4918    2.6173    2.4869 C   0  0  0  0  0  0  0  0  0  0  0  0
   -4.1942    3.4977    1.4939 C   0  0  0  0  0  0  0  0  0  0  0  0
   -4.3305    4.8365    1.7260 F   0  0  0  0  0  0  0  0  0  0  0  0
   -3.7616    3.0218    0.2747 C   0  0  0  0  0  0  0  0  0  0  0  0
   -3.6349    1.6421    0.0763 C   0  0  0  0  0  0  0  0  0  0  0  0
   -3.2140    1.2190   -1.1151 F   0  0  0  0  0  0  0  0  0  0  0  0
   -2.3901   -2.4619    0.2483 C   0  0  0  0  0  0  0  0  0  0  0  0
   -3.4222   -3.2103    0.3554 O   0  0  0  0  0  0  0  0  0  0  0  0
   -1.1963   -2.9439   -0.0822 N   0  0  0  0  0  0  0  0  0  0  0  0
   -1.1104   -4.3876   -0.3221 C   0  0  0  0  0  0  0  0  0  0  0  0
   -0.0739   -2.1918   -0.2081 C   0  0  0  0  0  0  0  0  0  0  0  0
    1.1116   -2.7248   -0.5446 N   0  0  0  0  0  0  0  0  0  0  0  0
  1  2  1  0
  2  3  1  0
  2  4  1  0
  4  5  1  0
  5  6  1  0
  6  7  2  0
  6  8  1  0
  8  9  1  0
  9 10  1  0
 10 11  1  0
 11 12  1  0
 12 13  1  0
 12 14  2  0
 16 15  1  1
 16 17  1  0
 17 18  1  0
 18 19  1  0
 19 20  2  0
 20 21  1  0
 21 22  2  0
 16 23  1  0
 23 24  1  0
 24 25  2  0
 25 26  1  0
 26 27  2  0
 27 28  1  0
 28 29  2  0
 29 30  1  0
 30 31  1  0
 31 32  2  0
 32 33  1  0
 33 34  2  0
 34 35  1  0
 34 36  1  0
 36 37  2  0
 37 38  1  0
 29 39  1  0
 39 40  2  0
 39 41  1  0
 41 42  1  0
 41 43  1  0
 43 44  2  0
 22 18  1  0
 44 24  1  0
 43 27  1  0
 37 31  1  0
M  RAD  1  13   2
M  END

