
     RDKit          3D

 42 45  0  0  0  0  0  0  0  0999 V2000
    3.9328   -0.4501    0.5639 C   0  0  0  0  0  0  0  0  0  0  0  0
    4.4082    0.5005   -0.7139 C   0  0  2  0  0  0  0  0  0  0  0  0
    5.6817    1.1436    0.1425 C   0  0  0  0  0  0  0  0  0  0  0  0
    6.4786   -0.0221    0.4703 N   0  0  0  0  0  0  0  0  0  0  0  0
    6.3602   -0.7652    1.5455 N   0  0  0  0  0  0  0  0  0  0  0  0
    7.2917   -1.7288    1.4394 C   0  0  0  0  0  0  0  0  0  0  0  0
    7.9561   -1.5345    0.2826 N   0  0  0  0  0  0  0  0  0  0  0  0
    7.4434   -0.4841   -0.2970 N   0  0  0  0  0  0  0  0  0  0  0  0
    3.4359    1.6862   -0.3054 N   0  0  0  0  0  0  0  0  0  0  0  0
    2.0696    1.3301   -0.2823 C   0  0  0  0  0  0  0  0  0  0  0  0
    1.1737    2.2681    0.0521 N   0  0  0  0  0  0  0  0  0  0  0  0
   -0.1585    2.0356    0.1059 C   0  0  0  0  0  0  0  0  0  0  0  0
   -0.6314    0.7858   -0.1930 C   0  0  0  0  0  0  0  0  0  0  0  0
   -1.9858    0.4579   -0.1633 C   0  0  0  0  0  0  0  0  0  0  0  0
   -2.3913   -0.8254   -0.4772 C   0  0  0  0  0  0  0  0  0  0  0  0
   -3.7243   -1.2135   -0.4657 O   0  0  0  0  0  0  0  0  0  0  0  0
   -4.7533   -0.3478   -0.1394 C   0  0  0  0  0  0  0  0  0  0  0  0
   -5.7471   -0.0883   -1.0608 C   0  0  0  0  0  0  0  0  0  0  0  0
   -6.7994    0.7667   -0.7924 C   0  0  0  0  0  0  0  0  0  0  0  0
   -6.8892    1.4003    0.4329 C   0  0  0  0  0  0  0  0  0  0  0  0
   -7.9106    2.2472    0.7301 F   0  0  0  0  0  0  0  0  0  0  0  0
   -5.8984    1.1415    1.3515 C   0  0  0  0  0  0  0  0  0  0  0  0
   -4.8493    0.2860    1.0768 C   0  0  0  0  0  0  0  0  0  0  0  0
   -3.8749    0.0355    1.9888 F   0  0  0  0  0  0  0  0  0  0  0  0
   -1.4422   -1.7649   -0.8166 C   0  0  0  0  0  0  0  0  0  0  0  0
   -1.8196   -2.9341   -1.1020 O   0  0  0  0  0  0  0  0  0  0  0  0
   -0.1178   -1.4343   -0.8430 N   0  0  0  0  0  0  0  0  0  0  0  0
    0.8890   -2.4166   -1.1992 C   0  0  0  0  0  0  0  0  0  0  0  0
    0.2798   -0.1864   -0.5380 C   0  0  0  0  0  0  0  0  0  0  0  0
    1.5924    0.1111   -0.5724 N   0  0  0  0  0  0  0  0  0  0  0  0
   -3.9268    1.0747   -0.4343 O   0  0  0  0  0  1  0  0  0  0  0  0
   -3.2825    0.0189    0.1593 C   0  0  0  0  0  0  0  0  0  0  0  0
   -3.7138   -0.4472    1.2245 O   0  0  0  0  0  0  0  0  0  0  0  0
   -2.0863   -0.5522   -0.4708 C   0  0  0  0  0  0  0  0  0  0  0  0
   -0.8764   -0.0810    0.2630 C   0  0  0  0  0  0  0  0  0  0  0  0
    0.3891   -0.6175   -0.3150 C   0  0  0  0  0  0  0  0  0  0  0  0
    0.4240   -1.3703   -1.2957 O   0  0  0  0  0  0  0  0  0  0  0  0
    1.6091   -0.2306    0.3096 N   0  0  0  0  0  0  0  0  0  0  0  0
    2.9563   -0.6256   -0.0755 C   0  0  0  0  0  0  0  0  0  0  0  0
    3.7220    0.6734    0.0449 C   0  0  0  0  0  0  0  0  0  0  0  0
    2.9840    1.5190    1.0518 C   0  0  0  0  0  0  0  0  0  0  0  0
    1.8014    0.6385    1.4644 C   0  0  0  0  0  0  0  0  0  0  0  0
  2  1  1  1
  2  3  1  0
  3  4  1  0
  4  5  1  0
  5  6  2  0
  6  7  1  0
  7  8  2  0
  2  9  1  0
  9 10  1  0
 10 11  2  0
 11 12  1  0
 12 13  2  0
 13 14  1  0
 14 15  2  0
 15 16  1  0
 16 17  1  0
 17 18  2  0
 18 19  1  0
 19 20  2  0
 20 21  1  0
 20 22  1  0
 22 23  2  0
 23 24  1  0
 15 25  1  0
 25 26  2  0
 25 27  1  0
 27 28  1  0
 27 29  1  0
 29 30  2  0
 31 32  1  0
 32 33  2  0
 32 34  1  0
 34 35  1  0
 35 36  1  0
 36 37  2  0
 36 38  1  0
 38 39  1  0
 39 40  1  0
 40 41  1  0
 41 42  1  0
  8  4  1  0
 30 10  1  0
 42 38  1  0
 29 13  1  0
 23 17  1  0
M  RAD  1  31   2
M  END

