
     RDKit          3D

 47 50  0  0  0  0  0  0  0  0999 V2000
    3.4806   -0.5553   -0.3832 C   0  0  0  0  0  0  0  0  0  0  0  0
    4.2861    0.7854    0.1760 C   0  0  2  0  0  0  0  0  0  0  0  0
    5.6625   -0.0802    0.5405 C   0  0  0  0  0  0  0  0  0  0  0  0
    6.0522   -0.6294   -0.7385 N   0  0  0  0  0  0  0  0  0  0  0  0
    5.6346   -1.7978   -1.1846 N   0  0  0  0  0  0  0  0  0  0  0  0
    6.1929   -1.9812   -2.3932 C   0  0  0  0  0  0  0  0  0  0  0  0
    6.9363   -0.9127   -2.6448 N   0  0  0  0  0  0  0  0  0  0  0  0
    6.8544   -0.0768   -1.6312 N   0  0  0  0  0  0  0  0  0  0  0  0
    3.7104    0.6639    1.6417 N   0  0  0  0  0  0  0  0  0  0  0  0
    2.2970    0.7311    1.7592 C   0  0  0  0  0  0  0  0  0  0  0  0
    1.6575    0.6439    2.9324 N   0  0  0  0  0  0  0  0  0  0  0  0
    0.3196    0.7157    2.9666 C   0  0  0  0  0  0  0  0  0  0  0  0
   -0.4452    0.8794    1.8177 C   0  0  0  0  0  0  0  0  0  0  0  0
   -1.8224    0.9553    1.8331 C   0  0  0  0  0  0  0  0  0  0  0  0
   -2.5138    1.1187    0.6480 C   0  0  0  0  0  0  0  0  0  0  0  0
   -3.9044    1.1975    0.6431 O   0  0  0  0  0  0  0  0  0  0  0  0
   -4.5776    0.2354   -0.0844 C   0  0  0  0  0  0  0  0  0  0  0  0
   -5.3881    0.5889   -1.1154 C   0  0  0  0  0  0  0  0  0  0  0  0
   -6.0834   -0.3614   -1.8712 C   0  0  0  0  0  0  0  0  0  0  0  0
   -5.9164   -1.6916   -1.5297 C   0  0  0  0  0  0  0  0  0  0  0  0
   -6.5752   -2.6244   -2.2426 F   0  0  0  0  0  0  0  0  0  0  0  0
   -5.0936   -2.0460   -0.4836 C   0  0  0  0  0  0  0  0  0  0  0  0
   -4.4113   -1.0849    0.2551 C   0  0  0  0  0  0  0  0  0  0  0  0
   -3.6109   -1.4349    1.2733 F   0  0  0  0  0  0  0  0  0  0  0  0
   -1.8293    1.2058   -0.5474 C   0  0  0  0  0  0  0  0  0  0  0  0
   -2.4460    1.3548   -1.6354 O   0  0  0  0  0  0  0  0  0  0  0  0
   -0.4869    1.1265   -0.5124 N   0  0  0  0  0  0  0  0  0  0  0  0
    0.2358    1.2174   -1.7651 C   0  0  0  0  0  0  0  0  0  0  0  0
    0.2249    0.9681    0.6140 C   0  0  0  0  0  0  0  0  0  0  0  0
    1.5596    0.8887    0.6547 N   0  0  0  0  0  0  0  0  0  0  0  0
    4.8110    2.2987   -0.2064 N   0  0  0  0  0  0  0  0  0  0  0  0
    3.9340    1.5776    0.6742 C   0  0  0  0  0  0  0  0  0  0  0  0
    2.8096    2.0460    0.9415 O   0  0  0  0  0  0  0  0  0  0  0  0
    4.4642    0.2963    1.2048 C   0  0  0  0  0  0  0  0  0  0  0  0
    3.3910   -0.3245    2.0698 C   0  0  0  0  0  0  0  0  0  0  0  0
    2.1713   -0.5834    1.2598 C   0  0  0  0  0  0  0  0  0  0  0  0
    2.1213   -0.3115    0.0240 O   0  0  0  0  0  0  0  0  0  0  0  0
    0.9917   -1.1481    1.8150 N   0  0  0  0  0  0  0  0  0  0  0  0
   -0.1988   -1.4001    1.0218 C   0  0  0  0  0  0  0  0  0  0  0  0
   -0.6602   -0.0935    0.4610 C   0  0  0  0  0  0  0  0  0  0  0  0
   -1.8721   -0.2092   -0.3720 C   0  0  0  0  0  0  0  0  0  0  0  0
   -1.8492   -0.4354   -1.7261 C   0  0  0  0  0  0  0  0  0  0  0  0
   -3.0239   -0.5380   -2.4759 C   0  0  0  0  0  0  0  0  0  0  0  0
   -4.2454   -0.4099   -1.8488 C   0  0  0  0  0  0  0  0  0  0  0  0
   -5.4546   -0.4995   -2.5252 O   0  0  0  0  0  0  0  0  0  0  0  0
   -4.2873   -0.1824   -0.4892 C   0  0  0  0  0  0  0  0  0  0  0  0
   -3.1026   -0.0832    0.2416 C   0  0  0  0  0  0  0  0  0  0  0  0
  2  1  1  6
  2  3  1  0
  3  4  1  0
  4  5  1  0
  5  6  2  0
  6  7  1  0
  7  8  2  0
  2  9  1  0
  9 10  1  0
 10 11  2  0
 11 12  1  0
 12 13  2  0
 13 14  1  0
 14 15  2  0
 15 16  1  0
 16 17  1  0
 17 18  2  0
 18 19  1  0
 19 20  2  0
 20 21  1  0
 20 22  1  0
 22 23  2  0
 23 24  1  0
 15 25  1  0
 25 26  2  0
 25 27  1  0
 27 28  1  0
 27 29  1  0
 29 30  2  0
 31 32  1  0
 32 33  2  0
 32 34  1  0
 34 35  1  0
 35 36  1  0
 36 37  2  0
 36 38  1  0
 38 39  1  0
 39 40  1  0
 40 41  1  0
 41 42  2  0
 42 43  1  0
 43 44  2  0
 44 45  1  0
 44 46  1  0
 46 47  2  0
  8  4  1  0
 30 10  1  0
 47 41  1  0
 29 13  1  0
 23 17  1  0
M  END

