
     RDKit          3D

 42 44  0  0  0  0  0  0  0  0999 V2000
    3.1233   -0.3089    1.4727 C   0  0  0  0  0  0  0  0  0  0  0  0
    2.9147   -0.7912    0.0811 C   0  0  0  0  0  0  0  0  0  0  0  0
    3.9034   -1.8387   -0.3623 C   0  0  0  0  0  0  0  0  0  0  0  0
    2.6871    0.2792   -0.9264 C   0  0  0  0  0  0  0  0  0  0  0  0
    1.4673    1.0577   -0.5522 C   0  0  0  0  0  0  0  0  0  0  0  0
    0.2734    0.1423   -0.5148 C   0  0  0  0  0  0  0  0  0  0  0  0
    0.3630   -1.0834   -0.7714 O   0  0  0  0  0  0  0  0  0  0  0  0
   -1.0208    0.6302   -0.1840 N   0  0  0  0  0  0  0  0  0  0  0  0
   -2.1817   -0.2694   -0.1495 C   0  0  0  0  0  0  0  0  0  0  0  0
   -3.3601    0.6223    0.2394 C   0  0  0  0  0  0  0  0  0  0  0  0
   -4.6385   -0.1780    0.3147 C   0  0  0  0  0  0  0  0  0  0  0  0
   -3.5311    1.7379   -0.7867 C   0  0  0  0  0  0  0  0  0  0  0  0
   -3.6434   -0.8987   -1.9984 C   0  0  0  0  0  0  0  0  0  0  0  0
   -4.5286   -1.7163   -0.8706 C   0  0  2  0  0  0  0  0  0  0  0  0
   -5.9626   -1.0933   -1.3727 C   0  0  0  0  0  0  0  0  0  0  0  0
   -5.9210    0.3113   -1.2550 N   0  0  0  0  0  0  0  0  0  0  0  0
   -5.5399    1.2577   -2.1120 N   0  0  0  0  0  0  0  0  0  0  0  0
   -5.6710    2.4671   -1.5682 C   0  0  0  0  0  0  0  0  0  0  0  0
   -6.1498    2.2728   -0.3301 N   0  0  0  0  0  0  0  0  0  0  0  0
   -6.2916    0.9756   -0.1646 N   0  0  0  0  0  0  0  0  0  0  0  0
   -4.2877   -0.6382    0.2500 N   0  0  0  0  0  0  0  0  0  0  0  0
   -2.8956   -0.4486    0.5683 C   0  0  0  0  0  0  0  0  0  0  0  0
   -2.5213    0.4368    1.5046 N   0  0  0  0  0  0  0  0  0  0  0  0
   -1.2327    0.6428    1.8304 C   0  0  0  0  0  0  0  0  0  0  0  0
   -0.2111   -0.0601    1.2056 C   0  0  0  0  0  0  0  0  0  0  0  0
    1.0973    0.1389    1.5253 C   0  0  0  0  0  0  0  0  0  0  0  0
    2.1541   -0.5942    0.8725 C   0  0  0  0  0  0  0  0  0  0  0  0
    3.4040   -0.3080    1.2795 O   0  0  0  0  0  0  0  0  0  0  0  0
    4.4724    0.2419    0.6941 C   0  0  0  0  0  0  0  0  0  0  0  0
    4.8000    1.5089    1.2629 C   0  0  0  0  0  0  0  0  0  0  0  0
    5.8342    2.2267    0.8261 C   0  0  0  0  0  0  0  0  0  0  0  0
    6.6566    1.8016   -0.1985 C   0  0  0  0  0  0  0  0  0  0  0  0
    7.7122    2.4973   -0.6706 F   0  0  0  0  0  0  0  0  0  0  0  0
    6.3432    0.5851   -0.7442 C   0  0  0  0  0  0  0  0  0  0  0  0
    5.2798   -0.1834   -0.3147 C   0  0  0  0  0  0  0  0  0  0  0  0
    5.0886   -1.4107   -0.9089 F   0  0  0  0  0  0  0  0  0  0  0  0
    1.6921   -1.4722   -0.0618 C   0  0  0  0  0  0  0  0  0  0  0  0
    2.5013   -2.1784   -0.7013 O   0  0  0  0  0  0  0  0  0  0  0  0
    0.3587   -1.6483   -0.3613 N   0  0  0  0  0  0  0  0  0  0  0  0
   -0.0129   -2.6139   -1.3783 C   0  0  0  0  0  0  0  0  0  0  0  0
   -0.6141   -0.9664    0.2456 C   0  0  0  0  0  0  0  0  0  0  0  0
   -1.9113   -1.1336   -0.0414 N   0  0  0  0  0  0  0  0  0  0  0  0
  1  2  1  0
  2  3  1  0
  2  4  1  0
  4  5  1  0
  5  6  1  0
  6  7  2  0
  6  8  1  0
  8  9  1  0
  9 10  1  0
 10 11  1  0
 10 12  1  0
 14 13  1  6
 14 15  1  0
 15 16  1  0
 16 17  1  0
 17 18  2  0
 18 19  1  0
 19 20  2  0
 14 21  1  0
 21 22  1  0
 22 23  2  0
 23 24  1  0
 24 25  2  0
 25 26  1  0
 26 27  2  0
 27 28  1  0
 28 29  1  0
 29 30  2  0
 30 31  1  0
 31 32  2  0
 32 33  1  0
 32 34  1  0
 34 35  2  0
 35 36  1  0
 27 37  1  0
 37 38  2  0
 37 39  1  0
 39 40  1  0
 39 41  1  0
 41 42  2  0
 20 16  1  0
 42 22  1  0
 41 25  1  0
 35 29  1  0
M  END

