
     RDKit          3D

 42 44  0  0  0  0  0  0  0  0999 V2000
   -3.4810    0.9190   -0.9460 C   0  0  0  0  0  0  0  0  0  0  0  0
   -3.3891   -0.5458   -0.7962 C   0  0  0  0  0  0  0  0  0  0  0  0
   -2.1578   -0.9132    0.2168 C   0  0  2  0  0  0  0  0  0  0  0  0
   -2.7825   -0.0796    1.4901 C   0  0  0  0  0  0  0  0  0  0  0  0
   -1.1961    0.3135   -0.2747 C   0  0  0  0  0  0  0  0  0  0  0  0
    0.0338    0.1232    0.5874 C   0  0  0  0  0  0  0  0  0  0  0  0
    0.1132   -0.8093    1.4232 O   0  0  0  0  0  0  0  0  0  0  0  0
    1.1388    0.9669    0.5018 N   0  0  0  0  0  0  0  0  0  0  0  0
    2.3589    1.1361    1.0310 C   0  0  0  0  0  0  0  0  0  0  0  0
    3.4687   -0.0072    0.7400 C   0  0  1  0  0  0  0  0  0  0  0  0
    2.4637   -1.3071    0.6429 C   0  0  0  0  0  0  0  0  0  0  0  0
    3.4296    0.2034   -0.8108 O   0  0  0  0  0  0  0  0  0  0  0  0
   -5.7165    2.0180   -0.8815 C   0  0  0  0  0  0  0  0  0  0  0  0
   -4.7290    0.7126   -0.8834 C   0  0  2  0  0  0  0  0  0  0  0  0
   -5.1601    0.2593    0.6266 C   0  0  0  0  0  0  0  0  0  0  0  0
   -6.5798    0.0205    0.5831 N   0  0  0  0  0  0  0  0  0  0  0  0
   -7.4647    0.9834    0.8317 N   0  0  0  0  0  0  0  0  0  0  0  0
   -8.7029    0.4926    0.7238 C   0  0  0  0  0  0  0  0  0  0  0  0
   -8.5577   -0.8079    0.3996 N   0  0  0  0  0  0  0  0  0  0  0  0
   -7.2594   -1.0797    0.3177 N   0  0  0  0  0  0  0  0  0  0  0  0
   -3.4837    1.5199   -0.4181 N   0  0  0  0  0  0  0  0  0  0  0  0
   -2.2768    0.8113   -0.2515 C   0  0  0  0  0  0  0  0  0  0  0  0
   -2.2907   -0.5083   -0.5066 N   0  0  0  0  0  0  0  0  0  0  0  0
   -1.1641   -1.2270   -0.3620 C   0  0  0  0  0  0  0  0  0  0  0  0
    0.0260   -0.6618    0.0433 C   0  0  0  0  0  0  0  0  0  0  0  0
    1.2033   -1.3641    0.2037 C   0  0  0  0  0  0  0  0  0  0  0  0
    2.3642   -0.7273    0.6152 C   0  0  0  0  0  0  0  0  0  0  0  0
    3.5705   -1.3819    0.7920 O   0  0  0  0  0  0  0  0  0  0  0  0
    4.7122   -1.0444    0.0779 C   0  0  0  0  0  0  0  0  0  0  0  0
    4.7344   -0.0329   -0.8614 C   0  0  0  0  0  0  0  0  0  0  0  0
    5.8777    0.2930   -1.5653 C   0  0  0  0  0  0  0  0  0  0  0  0
    7.0588   -0.3833   -1.3597 C   0  0  0  0  0  0  0  0  0  0  0  0
    8.2005   -0.0675   -2.0537 F   0  0  0  0  0  0  0  0  0  0  0  0
    7.0507   -1.3948   -0.4253 C   0  0  0  0  0  0  0  0  0  0  0  0
    5.8975   -1.7176    0.2792 C   0  0  0  0  0  0  0  0  0  0  0  0
    5.8736   -2.7110    1.2025 F   0  0  0  0  0  0  0  0  0  0  0  0
    2.2987    0.6281    0.8573 C   0  0  0  0  0  0  0  0  0  0  0  0
    3.3445    1.2099    1.2296 O   0  0  0  0  0  0  0  0  0  0  0  0
    1.1336    1.3292    0.6997 N   0  0  0  0  0  0  0  0  0  0  0  0
    1.1585    2.7511    0.9770 C   0  0  0  0  0  0  0  0  0  0  0  0
    0.0117    0.6945    0.2983 C   0  0  0  0  0  0  0  0  0  0  0  0
   -1.1310    1.3860    0.1445 N   0  0  0  0  0  0  0  0  0  0  0  0
  1  2  1  0
  2  3  1  0
  3  4  1  1
  3  5  1  0
  5  6  1  0
  6  7  2  0
  6  8  1  0
  8  9  1  0
  9 10  1  0
 10 11  1  6
 10 12  1  0
 14 13  1  1
 14 15  1  0
 15 16  1  0
 16 17  1  0
 17 18  2  0
 18 19  1  0
 19 20  2  0
 14 21  1  0
 21 22  1  0
 22 23  2  0
 23 24  1  0
 24 25  2  0
 25 26  1  0
 26 27  2  0
 27 28  1  0
 28 29  1  0
 29 30  2  0
 30 31  1  0
 31 32  2  0
 32 33  1  0
 32 34  1  0
 34 35  2  0
 35 36  1  0
 27 37  1  0
 37 38  2  0
 37 39  1  0
 39 40  1  0
 39 41  1  0
 41 42  2  0
 20 16  1  0
 42 22  1  0
 41 25  1  0
 35 29  1  0
M  END

