
     RDKit          3D

 43 45  0  0  0  0  0  0  0  0999 V2000
    3.9634   -1.2083    0.1001 C   0  0  0  0  0  0  0  0  0  0  0  0
    4.4807    0.4518    0.6468 S   0  0  0  0  0  0  0  0  0  0  0  0
    3.5470    1.7361   -0.2409 C   0  0  0  0  0  0  0  0  0  0  0  0
    2.0789    1.6213    0.1920 C   0  0  0  0  0  0  0  0  0  0  0  0
    1.6356    0.2317   -0.1924 C   0  0  0  0  0  0  0  0  0  0  0  0
    0.2156   -0.0143    0.1744 C   0  0  0  0  0  0  0  0  0  0  0  0
   -0.4030    0.9097    0.7256 O   0  0  0  0  0  0  0  0  0  0  0  0
   -0.3584   -1.2318   -0.1015 N   0  0  0  0  0  0  0  0  0  0  0  0
   -1.5517   -1.8689    0.0392 C   0  0  0  0  0  0  0  0  0  0  0  0
   -2.7469   -1.3941   -0.5823 C   0  0  0  0  0  0  0  0  0  0  0  0
   -3.3807   -0.1479   -0.2754 C   0  0  0  0  0  0  0  0  0  0  0  0
   -4.2049    0.4721   -1.2774 N   0  0  0  0  0  0  0  0  0  0  0  0
   -3.2757    0.4426    0.8037 O   0  0  0  0  0  0  0  0  0  0  0  0
    4.5100    1.7950    0.6194 C   0  0  0  0  0  0  0  0  0  0  0  0
    4.9985    0.4053    1.3846 C   0  0  2  0  0  0  0  0  0  0  0  0
    4.8160   -0.5375    0.0419 C   0  0  0  0  0  0  0  0  0  0  0  0
    5.7018    0.0327   -0.9314 N   0  0  0  0  0  0  0  0  0  0  0  0
    6.9566   -0.2578   -1.1536 N   0  0  0  0  0  0  0  0  0  0  0  0
    7.3721    0.5325   -2.1607 C   0  0  0  0  0  0  0  0  0  0  0  0
    6.3599    1.3056   -2.5487 N   0  0  0  0  0  0  0  0  0  0  0  0
    5.3396    0.9762   -1.7725 N   0  0  0  0  0  0  0  0  0  0  0  0
    3.5973    0.0337    1.9814 N   0  0  0  0  0  0  0  0  0  0  0  0
    2.5086   -0.1335    1.1318 C   0  0  0  0  0  0  0  0  0  0  0  0
    2.5369   -0.0036   -0.2028 N   0  0  0  0  0  0  0  0  0  0  0  0
    1.4151   -0.1905   -0.9196 C   0  0  0  0  0  0  0  0  0  0  0  0
    0.2097   -0.5178   -0.3238 C   0  0  0  0  0  0  0  0  0  0  0  0
   -0.9540   -0.7138   -1.0448 C   0  0  0  0  0  0  0  0  0  0  0  0
   -2.1130   -1.0398   -0.3496 C   0  0  0  0  0  0  0  0  0  0  0  0
   -3.2824   -1.2372   -1.0685 O   0  0  0  0  0  0  0  0  0  0  0  0
   -4.4235   -0.4652   -0.8633 C   0  0  0  0  0  0  0  0  0  0  0  0
   -5.6069   -1.0286   -0.4719 C   0  0  0  0  0  0  0  0  0  0  0  0
   -6.7281   -0.2306   -0.2754 C   0  0  0  0  0  0  0  0  0  0  0  0
   -6.6932    1.1326   -0.4632 C   0  0  0  0  0  0  0  0  0  0  0  0
   -7.8162    1.8903   -0.2609 F   0  0  0  0  0  0  0  0  0  0  0  0
   -5.4987    1.6912   -0.8569 C   0  0  0  0  0  0  0  0  0  0  0  0
   -4.3909    0.9033   -1.0511 C   0  0  0  0  0  0  0  0  0  0  0  0
   -3.2105    1.4384   -1.4380 F   0  0  0  0  0  0  0  0  0  0  0  0
   -2.0995   -1.1630    1.0152 C   0  0  0  0  0  0  0  0  0  0  0  0
   -3.1646   -1.4587    1.6111 O   0  0  0  0  0  0  0  0  0  0  0  0
   -0.9619   -0.9693    1.6963 N   0  0  0  0  0  0  0  0  0  0  0  0
   -0.9091   -1.0900    3.1296 C   0  0  0  0  0  0  0  0  0  0  0  0
    0.1919   -0.6492    1.0529 C   0  0  0  0  0  0  0  0  0  0  0  0
    1.3387   -0.4508    1.7068 N   0  0  0  0  0  0  0  0  0  0  0  0
  1  2  1  0
  2  3  1  0
  3  4  1  0
  4  5  1  0
  5  6  1  0
  6  7  2  0
  6  8  1  0
  8  9  1  0
  9 10  1  0
 10 11  1  0
 11 12  1  0
 11 13  2  0
 15 14  1  6
 15 16  1  0
 16 17  1  0
 17 18  1  0
 18 19  2  0
 19 20  1  0
 20 21  2  0
 15 22  1  0
 22 23  1  0
 23 24  2  0
 24 25  1  0
 25 26  2  0
 26 27  1  0
 27 28  2  0
 28 29  1  0
 29 30  1  0
 30 31  2  0
 31 32  1  0
 32 33  2  0
 33 34  1  0
 33 35  1  0
 35 36  2  0
 36 37  1  0
 28 38  1  0
 38 39  2  0
 38 40  1  0
 40 41  1  0
 40 42  1  0
 42 43  2  0
 21 17  1  0
 43 23  1  0
 42 26  1  0
 36 30  1  0
M  END

