
     RDKit          3D

 44 46  0  0  0  0  0  0  0  0999 V2000
    5.7651   -1.8143    1.7461 C   0  0  0  0  0  0  0  0  0  0  0  0
    4.2219   -2.2054    1.2851 C   0  0  2  0  0  0  0  0  0  0  0  0
    4.5757   -2.2344   -0.3222 C   0  0  0  0  0  0  0  0  0  0  0  0
    5.0605   -0.9266   -0.6777 N   0  0  0  0  0  0  0  0  0  0  0  0
    6.3254   -0.6253   -0.6131 N   0  0  0  0  0  0  0  0  0  0  0  0
    6.4957    0.6510   -0.9985 C   0  0  0  0  0  0  0  0  0  0  0  0
    5.2739    1.1115   -1.3006 N   0  0  0  0  0  0  0  0  0  0  0  0
    4.4249    0.1381   -1.0980 N   0  0  0  0  0  0  0  0  0  0  0  0
    3.7215   -0.7082    1.2964 N   0  0  0  0  0  0  0  0  0  0  0  0
    2.3456   -0.5672    0.9337 C   0  0  0  0  0  0  0  0  0  0  0  0
    1.5574   -1.6056    0.6151 N   0  0  0  0  0  0  0  0  0  0  0  0
    0.2630   -1.4896    0.2724 C   0  0  0  0  0  0  0  0  0  0  0  0
   -0.3107   -0.2263    0.2405 C   0  0  0  0  0  0  0  0  0  0  0  0
   -1.6315   -0.0352   -0.1020 C   0  0  0  0  0  0  0  0  0  0  0  0
   -2.1087    1.2576   -0.1045 C   0  0  0  0  0  0  0  0  0  0  0  0
   -3.4268    1.5546   -0.4358 O   0  0  0  0  0  0  0  0  0  0  0  0
   -4.3484    0.5854   -0.7840 C   0  0  0  0  0  0  0  0  0  0  0  0
   -4.9196    0.6729   -2.0339 C   0  0  0  0  0  0  0  0  0  0  0  0
   -5.8343   -0.2875   -2.3820 C   0  0  0  0  0  0  0  0  0  0  0  0
   -6.1840   -1.3066   -1.5356 C   0  0  0  0  0  0  0  0  0  0  0  0
   -7.0913   -2.2450   -1.9020 F   0  0  0  0  0  0  0  0  0  0  0  0
   -5.6111   -1.3864   -0.2938 C   0  0  0  0  0  0  0  0  0  0  0  0
   -4.6728   -0.4227    0.0955 C   0  0  0  0  0  0  0  0  0  0  0  0
   -4.0858   -0.4698    1.3156 F   0  0  0  0  0  0  0  0  0  0  0  0
   -1.2708    2.3022    0.2283 C   0  0  0  0  0  0  0  0  0  0  0  0
   -1.7446    3.4838    0.2157 O   0  0  0  0  0  0  0  0  0  0  0  0
    0.0151    2.1062    0.5608 N   0  0  0  0  0  0  0  0  0  0  0  0
    0.8881    3.2098    0.9090 C   0  0  0  0  0  0  0  0  0  0  0  0
    0.5106    0.8334    0.5702 C   0  0  0  0  0  0  0  0  0  0  0  0
    1.7961    0.6496    0.9039 N   0  0  0  0  0  0  0  0  0  0  0  0
    3.0890    1.9788    0.0226 N   0  0  0  0  0  4  0  0  0  0  0  0
    3.7642    1.2569   -1.0196 C   0  0  0  0  0  0  0  0  0  0  0  0
    2.9757    0.1676   -1.6602 C   0  0  0  0  0  0  0  0  0  0  0  0
    2.5290   -0.9213   -0.7008 C   0  0  0  0  0  0  0  0  0  0  0  0
    1.7724   -1.9441   -1.4511 C   0  0  0  0  0  0  0  0  0  0  0  0
    0.5190   -1.6035   -2.1122 C   0  0  0  0  0  0  0  0  0  0  0  0
   -0.5207   -1.2322   -1.2748 N   0  0  0  0  0  0  0  0  0  0  0  0
   -0.6375   -0.1958   -0.3738 C   0  0  0  0  0  0  0  0  0  0  0  0
    0.2764    0.6171   -0.1878 O   0  0  0  0  0  0  0  0  0  0  0  0
   -1.9059   -0.0694    0.3852 C   0  0  0  0  0  0  0  0  0  0  0  0
   -1.7860    1.1310    1.2967 C   0  0  0  0  0  0  0  0  0  0  0  0
   -3.0092    1.3360    2.0960 C   0  0  0  0  0  0  0  0  0  0  0  0
   -3.0644    2.3935    2.9824 O   0  0  0  0  0  1  0  0  0  0  0  0
   -4.0019    0.5812    1.9975 O   0  0  0  0  0  0  0  0  0  0  0  0
  2  1  1  1
  2  3  1  0
  3  4  1  0
  4  5  1  0
  5  6  2  0
  6  7  1  0
  7  8  2  0
  2  9  1  0
  9 10  1  0
 10 11  2  0
 11 12  1  0
 12 13  2  0
 13 14  1  0
 14 15  2  0
 15 16  1  0
 16 17  1  0
 17 18  2  0
 18 19  1  0
 19 20  2  0
 20 21  1  0
 20 22  1  0
 22 23  2  0
 23 24  1  0
 15 25  1  0
 25 26  2  0
 25 27  1  0
 27 28  1  0
 27 29  1  0
 29 30  2  0
 31 32  1  0
 32 33  1  0
 33 34  1  0
 34 35  1  0
 35 36  1  0
 36 37  1  0
 37 38  1  0
 38 39  2  0
 38 40  1  0
 40 41  1  0
 41 42  1  0
 42 43  1  0
 42 44  2  0
  8  4  1  0
 30 10  1  0
 29 13  1  0
 23 17  1  0
M  CHG  1  31   1
M  RAD  1  43   2
M  END

