
     RDKit          3D

 45 48  0  0  0  0  0  0  0  0999 V2000
   -4.6838    0.0659    0.5686 C   0  0  0  0  0  0  0  0  0  0  0  0
   -4.9204    0.9628   -0.8337 C   0  0  2  0  0  0  0  0  0  0  0  0
   -5.9945   -0.1750   -1.4497 C   0  0  0  0  0  0  0  0  0  0  0  0
   -7.0042   -0.1400   -0.4106 N   0  0  0  0  0  0  0  0  0  0  0  0
   -8.0889    0.5994   -0.2784 N   0  0  0  0  0  0  0  0  0  0  0  0
   -8.6960    0.2467    0.8704 C   0  0  0  0  0  0  0  0  0  0  0  0
   -7.9697   -0.7190    1.4419 N   0  0  0  0  0  0  0  0  0  0  0  0
   -6.9518   -0.9333    0.6453 N   0  0  0  0  0  0  0  0  0  0  0  0
   -3.6812    0.3426   -1.5911 N   0  0  0  0  0  0  0  0  0  0  0  0
   -2.4196    0.5109   -1.0222 C   0  0  0  0  0  0  0  0  0  0  0  0
   -2.2136    1.1709    0.1307 N   0  0  0  0  0  0  0  0  0  0  0  0
   -0.9945    1.3286    0.6723 C   0  0  0  0  0  0  0  0  0  0  0  0
    0.1056    0.8011    0.0386 C   0  0  0  0  0  0  0  0  0  0  0  0
    1.3727    0.9103    0.5118 C   0  0  0  0  0  0  0  0  0  0  0  0
    2.5069    0.3421   -0.1806 C   0  0  0  0  0  0  0  0  0  0  0  0
    3.6842    0.4991    0.3524 O   0  0  0  0  0  0  0  0  0  0  0  0
    4.8185    0.1642    0.8931 C   0  0  0  0  0  0  0  0  0  0  0  0
    5.0896    0.6123    2.2435 C   0  0  0  0  0  0  0  0  0  0  0  0
    6.2589    0.2865    2.8489 C   0  0  0  0  0  0  0  0  0  0  0  0
    7.2414   -0.4654    2.2524 C   0  0  0  0  0  0  0  0  0  0  0  0
    8.3804   -0.7502    2.9248 F   0  0  0  0  0  0  0  0  0  0  0  0
    7.0117   -0.8977    0.9843 C   0  0  0  0  0  0  0  0  0  0  0  0
    5.8180   -0.5799    0.3312 C   0  0  0  0  0  0  0  0  0  0  0  0
    5.6867   -1.0419   -0.9416 F   0  0  0  0  0  0  0  0  0  0  0  0
    2.2437   -0.3199   -1.3519 C   0  0  0  0  0  0  0  0  0  0  0  0
    3.1591   -0.8674   -2.0647 O   0  0  0  0  0  0  0  0  0  0  0  0
    0.9700   -0.4000   -1.7772 N   0  0  0  0  0  0  0  0  0  0  0  0
    0.7168   -1.1170   -3.0374 C   0  0  0  0  0  0  0  0  0  0  0  0
   -0.0918    0.1203   -1.1471 C   0  0  0  0  0  0  0  0  0  0  0  0
   -1.3545    0.0071   -1.6241 N   0  0  0  0  0  0  0  0  0  0  0  0
    3.5905   -0.5021    1.9234 O   0  0  0  0  0  1  0  0  0  0  0  0
    3.4588   -0.6807    0.5447 C   0  0  0  0  0  0  0  0  0  0  0  0
    4.1015   -0.0369   -0.3099 O   0  0  0  0  0  0  0  0  0  0  0  0
    2.4796   -1.7022    0.0660 C   0  0  0  0  0  0  0  0  0  0  0  0
    1.5809   -0.9585   -0.9371 C   0  0  0  0  0  0  0  0  0  0  0  0
    0.9292    0.1658   -0.1598 C   0  0  0  0  0  0  0  0  0  0  0  0
    1.1948    0.3591    1.0449 O   0  0  0  0  0  0  0  0  0  0  0  0
   -0.0045    0.9993   -0.8645 N   0  0  0  0  0  0  0  0  0  0  0  0
   -0.6002    2.0770   -0.0473 C   0  0  0  0  0  0  0  0  0  0  0  0
   -1.3064    1.3489    1.1101 C   0  0  0  0  0  0  0  0  0  0  0  0
   -2.3032    0.4496    0.4621 C   0  0  0  0  0  0  0  0  0  0  0  0
   -3.5949    0.8038    0.1686 C   0  0  0  0  0  0  0  0  0  0  0  0
   -4.1491   -0.2644   -0.4066 N   0  0  0  0  0  0  0  0  0  0  0  0
   -3.2554   -1.2480   -0.4781 C   0  0  0  0  0  0  0  0  0  0  0  0
   -2.1217   -0.8108    0.0544 N   0  0  0  0  0  0  0  0  0  0  0  0
  2  1  1  1
  2  3  1  0
  3  4  1  0
  4  5  1  0
  5  6  2  0
  6  7  1  0
  7  8  2  0
  2  9  1  0
  9 10  1  0
 10 11  2  0
 11 12  1  0
 12 13  2  0
 13 14  1  0
 14 15  2  0
 15 16  1  0
 16 17  1  0
 17 18  2  0
 18 19  1  0
 19 20  2  0
 20 21  1  0
 20 22  1  0
 22 23  2  0
 23 24  1  0
 15 25  1  0
 25 26  2  0
 25 27  1  0
 27 28  1  0
 27 29  1  0
 29 30  2  0
 31 32  1  0
 32 33  2  0
 32 34  1  0
 34 35  1  0
 35 36  1  0
 36 37  2  0
 36 38  1  0
 38 39  1  0
 39 40  1  0
 40 41  1  0
 41 42  2  0
 42 43  1  0
 43 44  1  0
 44 45  2  0
  8  4  1  0
 30 10  1  0
 45 41  1  0
 29 13  1  0
 23 17  1  0
M  RAD  1  31   2
M  END

