
     RDKit          3D

 43 46  0  0  0  0  0  0  0  0999 V2000
    4.1722   -0.3317    1.1165 C   0  0  0  0  0  0  0  0  0  0  0  0
    3.3020   -1.5683    1.0261 C   0  0  0  0  0  0  0  0  0  0  0  0
    2.4936   -1.5668   -0.1790 N   0  0  0  0  0  0  0  0  0  0  0  0
    1.5461   -0.5359   -0.4593 C   0  0  0  0  0  0  0  0  0  0  0  0
    1.4420    0.3748    0.3873 O   0  0  0  0  0  0  0  0  0  0  0  0
    0.7448   -0.5553   -1.6769 C   0  0  0  0  0  0  0  0  0  0  0  0
   -0.2245    0.5502   -1.7862 C   0  0  0  0  0  0  0  0  0  0  0  0
   -1.2572    0.6085   -0.7224 C   0  0  0  0  0  0  0  0  0  0  0  0
   -2.4462   -0.0828   -0.8342 C   0  0  0  0  0  0  0  0  0  0  0  0
   -3.4297   -0.0422    0.1210 C   0  0  0  0  0  0  0  0  0  0  0  0
   -3.2352    0.7198    1.2494 C   0  0  0  0  0  0  0  0  0  0  0  0
   -2.0466    1.4077    1.3557 C   0  0  0  0  0  0  0  0  0  0  0  0
   -1.0613    1.3689    0.4020 C   0  0  0  0  0  0  0  0  0  0  0  0
    3.7322    1.3058   -1.8148 C   0  0  0  0  0  0  0  0  0  0  0  0
    4.4643    0.8126   -0.3901 C   0  0  2  0  0  0  0  0  0  0  0  0
    5.6734    0.0448   -1.2231 C   0  0  0  0  0  0  0  0  0  0  0  0
    6.5255   -0.5197   -0.2099 N   0  0  0  0  0  0  0  0  0  0  0  0
    6.5047   -1.6870    0.3879 N   0  0  0  0  0  0  0  0  0  0  0  0
    7.5225   -1.7263    1.2633 C   0  0  0  0  0  0  0  0  0  0  0  0
    8.1793   -0.5541    1.1971 N   0  0  0  0  0  0  0  0  0  0  0  0
    7.5411    0.1505    0.2897 N   0  0  0  0  0  0  0  0  0  0  0  0
    3.5990   -0.5038   -0.2648 N   0  0  0  0  0  0  0  0  0  0  0  0
    2.2039   -0.3176   -0.1747 C   0  0  0  0  0  0  0  0  0  0  0  0
    1.4625   -1.4316   -0.0680 N   0  0  0  0  0  0  0  0  0  0  0  0
    0.1217   -1.4329    0.0274 C   0  0  0  0  0  0  0  0  0  0  0  0
   -0.5150   -0.2085    0.0133 C   0  0  0  0  0  0  0  0  0  0  0  0
   -1.9064   -0.1264    0.1083 C   0  0  0  0  0  0  0  0  0  0  0  0
   -2.5583    1.0901    0.0957 C   0  0  0  0  0  0  0  0  0  0  0  0
   -3.9375    1.2173    0.1876 O   0  0  0  0  0  0  0  0  0  0  0  0
   -4.6866    0.0328    0.2982 C   0  0  0  0  0  0  0  0  0  0  0  0
   -4.0947   -1.2108    0.3164 C   0  0  0  0  0  0  0  0  0  0  0  0
   -4.8136   -2.3813    0.4242 C   0  0  0  0  0  0  0  0  0  0  0  0
   -6.1813   -2.3175    0.5183 C   0  0  0  0  0  0  0  0  0  0  0  0
   -6.9874   -3.3954    0.6278 F   0  0  0  0  0  0  0  0  0  0  0  0
   -6.7835   -1.0744    0.5009 C   0  0  0  0  0  0  0  0  0  0  0  0
   -6.0687    0.0831    0.3940 C   0  0  0  0  0  0  0  0  0  0  0  0
   -6.6267    1.3207    0.3737 F   0  0  0  0  0  0  0  0  0  0  0  0
   -1.7677    2.2174   -0.0151 C   0  0  0  0  0  0  0  0  0  0  0  0
   -2.3528    3.3250   -0.0272 O   0  0  0  0  0  0  0  0  0  0  0  0
   -0.4218    2.1286   -0.1065 N   0  0  0  0  0  0  0  0  0  0  0  0
    0.3813    3.3396   -0.2223 C   0  0  0  0  0  0  0  0  0  0  0  0
    0.2181    0.9566   -0.0952 C   0  0  0  0  0  0  0  0  0  0  0  0
    1.5723    0.8624   -0.1869 N   0  0  0  0  0  0  0  0  0  0  0  0
  1  2  1  0
  2  3  1  0
  3  4  1  0
  4  5  2  0
  4  6  1  0
  6  7  1  0
  7  8  1  0
  8  9  2  0
  9 10  1  0
 10 11  2  0
 11 12  1  0
 12 13  2  0
 15 14  1  6
 15 16  1  0
 16 17  1  0
 17 18  1  0
 18 19  2  0
 19 20  1  0
 20 21  2  0
 15 22  1  0
 22 23  1  0
 23 24  2  0
 24 25  1  0
 25 26  2  0
 26 27  1  0
 27 28  2  0
 28 29  1  0
 29 30  1  0
 30 31  2  0
 31 32  1  0
 32 33  2  0
 33 34  1  0
 33 35  1  0
 35 36  2  0
 36 37  1  0
 28 38  1  0
 38 39  2  0
 38 40  1  0
 40 41  1  0
 40 42  1  0
 42 43  2  0
 13  8  1  0
 21 17  1  0
 43 23  1  0
 42 26  1  0
 36 30  1  0
M  END

