
     RDKit          3D

 40 43  0  0  0  0  0  0  0  0999 V2000
   -3.2375   -1.1058    3.1334 C   0  0  0  0  0  0  0  0  0  0  0  0
   -3.6694    0.4741    3.3917 C   0  0  2  0  0  0  0  0  0  0  0  0
   -5.2837    0.1616    3.2487 C   0  0  0  0  0  0  0  0  0  0  0  0
   -5.5318   -0.3745    1.9636 N   0  0  0  0  0  0  0  0  0  0  0  0
   -5.5515   -1.5890    1.4785 N   0  0  0  0  0  0  0  0  0  0  0  0
   -5.8397   -1.6027    0.1841 C   0  0  0  0  0  0  0  0  0  0  0  0
   -6.0118   -0.3194   -0.1668 N   0  0  0  0  0  0  0  0  0  0  0  0
   -5.8233    0.4083    0.9148 N   0  0  0  0  0  0  0  0  0  0  0  0
   -3.4741    0.8922    1.8784 N   0  0  0  0  0  0  0  0  0  0  0  0
   -2.1442    0.6864    1.4137 C   0  0  0  0  0  0  0  0  0  0  0  0
   -1.1504    0.1916    2.1658 N   0  0  0  0  0  0  0  0  0  0  0  0
    0.0831    0.0317    1.6349 C   0  0  0  0  0  0  0  0  0  0  0  0
    0.3789    0.3603    0.3247 C   0  0  0  0  0  0  0  0  0  0  0  0
    1.6456    0.1901   -0.2011 C   0  0  0  0  0  0  0  0  0  0  0  0
    1.8515    0.5430   -1.5134 C   0  0  0  0  0  0  0  0  0  0  0  0
    3.0552    0.4275   -2.1621 O   0  0  0  0  0  0  0  0  0  0  0  0
    4.2178   -0.0483   -1.6147 C   0  0  0  0  0  0  0  0  0  0  0  0
    5.3272    0.7936   -1.5779 C   0  0  0  0  0  0  0  0  0  0  0  0
    6.4990    0.3176   -1.0275 C   0  0  0  0  0  0  0  0  0  0  0  0
    6.6339   -0.9516   -0.5091 C   0  0  0  0  0  0  0  0  0  0  0  0
    7.8043   -1.3946    0.0284 F   0  0  0  0  0  0  0  0  0  0  0  0
    5.5075   -1.7609   -0.5636 C   0  0  0  0  0  0  0  0  0  0  0  0
    4.3241   -1.3187   -1.1050 C   0  0  0  0  0  0  0  0  0  0  0  0
    3.2107   -2.0998   -1.1658 F   0  0  0  0  0  0  0  0  0  0  0  0
    0.7780    1.0500   -2.2370 C   0  0  0  0  0  0  0  0  0  0  0  0
    0.9493    1.3823   -3.4534 O   0  0  0  0  0  0  0  0  0  0  0  0
   -0.4449    1.2075   -1.7075 N   0  0  0  0  0  0  0  0  0  0  0  0
   -1.5475    1.7403   -2.4897 C   0  0  0  0  0  0  0  0  0  0  0  0
   -0.6740    0.8698   -0.4246 C   0  0  0  0  0  0  0  0  0  0  0  0
   -1.8823    1.0069    0.1585 N   0  0  0  0  0  0  0  0  0  0  0  0
    1.0206    0.7944    0.8617 O   0  0  0  0  0  0  0  0  0  0  0  0
    0.6091    0.1409   -0.1613 C   0  0  0  0  0  0  0  0  0  0  0  0
    1.5627   -0.2703   -1.2249 C   0  0  0  0  0  0  0  0  0  0  0  0
    2.9359    0.2205   -0.8255 C   0  0  0  0  0  0  0  0  0  0  0  0
    3.3493   -0.3148    0.3868 O   0  0  0  0  0  0  0  0  0  0  0  0
   -0.7466   -0.1925   -0.2864 N   0  0  0  0  0  0  0  0  0  0  0  0
   -1.3389   -0.9228   -1.3838 C   0  0  0  0  0  0  0  0  0  0  0  0
   -2.6365   -0.1784   -1.5969 C   0  0  0  0  0  0  0  0  0  0  0  0
   -2.8922    0.6277   -0.3493 C   0  0  0  0  0  0  0  0  0  0  0  0
   -1.8635    0.0954    0.6141 C   0  0  0  0  0  0  0  0  0  0  0  0
  2  1  1  6
  2  3  1  0
  3  4  1  0
  4  5  1  0
  5  6  2  0
  6  7  1  0
  7  8  2  0
  2  9  1  0
  9 10  1  0
 10 11  2  0
 11 12  1  0
 12 13  2  0
 13 14  1  0
 14 15  2  0
 15 16  1  0
 16 17  1  0
 17 18  2  0
 18 19  1  0
 19 20  2  0
 20 21  1  0
 20 22  1  0
 22 23  2  0
 23 24  1  0
 15 25  1  0
 25 26  2  0
 25 27  1  0
 27 28  1  0
 27 29  1  0
 29 30  2  0
 31 32  2  0
 32 33  1  0
 33 34  1  0
 34 35  1  0
 32 36  1  0
 36 37  1  0
 37 38  1  0
 38 39  1  0
 39 40  1  0
  8  4  1  0
 30 10  1  0
 40 36  1  0
 29 13  1  0
 23 17  1  0
M  END

