
     RDKit          3D

 42 44  0  0  0  0  0  0  0  0999 V2000
    4.3969   -0.2242    0.6953 C   0  0  0  0  0  0  0  0  0  0  0  0
    3.6089    0.5423   -0.3234 C   0  0  0  0  0  0  0  0  0  0  0  0
    4.2064    0.6441   -1.6581 C   0  0  0  0  0  0  0  0  0  0  0  0
    2.2184    0.7427   -0.1199 C   0  0  0  0  0  0  0  0  0  0  0  0
    1.1657   -0.0502    0.0205 C   0  0  0  0  0  0  0  0  0  0  0  0
   -0.1993   -0.0102    0.2180 C   0  0  0  0  0  0  0  0  0  0  0  0
   -0.7256    1.1448    0.3108 O   0  0  0  0  0  0  0  0  0  0  0  0
   -1.1763   -1.0370    0.3440 N   0  0  0  0  0  0  0  0  0  0  0  0
   -2.5869   -0.7833    0.5512 C   0  0  0  0  0  0  0  0  0  0  0  0
   -3.0552    0.1001   -0.7719 C   0  0  1  0  0  0  0  0  0  0  0  0
   -3.3633   -1.2691   -1.6555 C   0  0  0  0  0  0  0  0  0  0  0  0
   -4.4897    0.1999   -0.2855 O   0  0  0  0  0  0  0  0  0  0  0  0
    5.9018    2.1041    0.6103 C   0  0  0  0  0  0  0  0  0  0  0  0
    4.3513    1.6819    0.9839 C   0  0  2  0  0  0  0  0  0  0  0  0
    4.7839    0.2121    1.5786 C   0  0  0  0  0  0  0  0  0  0  0  0
    5.4299   -0.5208    0.5300 N   0  0  0  0  0  0  0  0  0  0  0  0
    4.7522   -1.2969   -0.2964 N   0  0  0  0  0  0  0  0  0  0  0  0
    5.5965   -1.8549   -1.1681 C   0  0  0  0  0  0  0  0  0  0  0  0
    6.8178   -1.3933   -0.8473 N   0  0  0  0  0  0  0  0  0  0  0  0
    6.6766   -0.5970    0.1751 N   0  0  0  0  0  0  0  0  0  0  0  0
    4.0304    1.1792   -0.4745 N   0  0  0  0  0  0  0  0  0  0  0  0
    2.7062    0.6887   -0.6362 C   0  0  0  0  0  0  0  0  0  0  0  0
    2.3038    0.2301   -1.8297 N   0  0  0  0  0  0  0  0  0  0  0  0
    1.0758   -0.2549   -2.0907 C   0  0  0  0  0  0  0  0  0  0  0  0
    0.1584   -0.2848   -1.0565 C   0  0  0  0  0  0  0  0  0  0  0  0
   -1.0918   -0.7770   -1.3167 C   0  0  0  0  0  0  0  0  0  0  0  0
   -1.9903   -0.7933   -0.2561 C   0  0  0  0  0  0  0  0  0  0  0  0
   -3.2709   -1.2700   -0.4207 O   0  0  0  0  0  0  0  0  0  0  0  0
   -4.3540   -0.4369   -0.1845 C   0  0  0  0  0  0  0  0  0  0  0  0
   -4.2321    0.8764    0.2158 C   0  0  0  0  0  0  0  0  0  0  0  0
   -5.3065    1.6929    0.4471 C   0  0  0  0  0  0  0  0  0  0  0  0
   -6.5595    1.1882    0.2747 C   0  0  0  0  0  0  0  0  0  0  0  0
   -7.6549    1.9375    0.4852 F   0  0  0  0  0  0  0  0  0  0  0  0
   -6.7184   -0.1146   -0.1231 C   0  0  0  0  0  0  0  0  0  0  0  0
   -5.6504   -0.9247   -0.3525 C   0  0  0  0  0  0  0  0  0  0  0  0
   -5.7893   -2.2187   -0.7473 F   0  0  0  0  0  0  0  0  0  0  0  0
   -1.5994   -0.3263    0.9831 C   0  0  0  0  0  0  0  0  0  0  0  0
   -2.4381   -0.3573    1.9149 O   0  0  0  0  0  0  0  0  0  0  0  0
   -0.3355    0.1557    1.1883 N   0  0  0  0  0  0  0  0  0  0  0  0
    0.0641    0.6432    2.4923 C   0  0  0  0  0  0  0  0  0  0  0  0
    0.5487    0.1812    0.1792 C   0  0  0  0  0  0  0  0  0  0  0  0
    1.7937    0.6503    0.3604 N   0  0  0  0  0  0  0  0  0  0  0  0
  1  2  1  0
  2  3  1  0
  2  4  1  0
  4  5  1  0
  5  6  1  0
  6  7  2  0
  6  8  1  0
  8  9  1  0
  9 10  1  0
 10 11  1  6
 10 12  1  0
 14 13  1  6
 14 15  1  0
 15 16  1  0
 16 17  1  0
 17 18  2  0
 18 19  1  0
 19 20  2  0
 14 21  1  0
 21 22  1  0
 22 23  2  0
 23 24  1  0
 24 25  2  0
 25 26  1  0
 26 27  2  0
 27 28  1  0
 28 29  1  0
 29 30  2  0
 30 31  1  0
 31 32  2  0
 32 33  1  0
 32 34  1  0
 34 35  2  0
 35 36  1  0
 27 37  1  0
 37 38  2  0
 37 39  1  0
 39 40  1  0
 39 41  1  0
 41 42  2  0
 20 16  1  0
 42 22  1  0
 41 25  1  0
 35 29  1  0
M  END

