
     RDKit          3D

 37 39  0  0  0  0  0  0  0  0999 V2000
   -2.3224    0.8259    0.2619 C   0  0  0  0  0  0  0  0  0  0  0  0
   -2.0164   -0.6162   -0.1234 C   0  0  0  0  0  0  0  0  0  0  0  0
   -0.7176   -0.9523    0.4217 N   0  0  0  0  0  0  0  0  0  0  0  0
    0.3790   -0.1710   -0.0171 C   0  0  0  0  0  0  0  0  0  0  0  0
    0.1843    0.7547   -0.8377 O   0  0  0  0  0  0  0  0  0  0  0  0
    1.7645   -0.3996    0.4547 C   0  0  0  0  0  0  0  0  0  0  0  0
    2.7288    0.5585   -0.1601 C   0  0  0  0  0  0  0  0  0  0  0  0
    3.3002    1.3820   -1.7390 C   0  0  0  0  0  0  0  0  0  0  0  0
    4.3294    0.7541   -0.5689 C   0  0  2  0  0  0  0  0  0  0  0  0
    5.4851    0.3621   -1.7186 C   0  0  0  0  0  0  0  0  0  0  0  0
    6.4902   -0.2204   -0.8175 N   0  0  0  0  0  0  0  0  0  0  0  0
    6.6289   -1.4561   -0.4289 N   0  0  0  0  0  0  0  0  0  0  0  0
    7.6746   -1.5836    0.3993 C   0  0  0  0  0  0  0  0  0  0  0  0
    8.1932   -0.3418    0.5116 N   0  0  0  0  0  0  0  0  0  0  0  0
    7.4569    0.4633   -0.2352 N   0  0  0  0  0  0  0  0  0  0  0  0
    3.7143   -0.7017   -0.5902 N   0  0  0  0  0  0  0  0  0  0  0  0
    2.3618   -0.8473   -0.2696 C   0  0  0  0  0  0  0  0  0  0  0  0
    1.8741   -2.0929   -0.2975 N   0  0  0  0  0  0  0  0  0  0  0  0
    0.5694   -2.3465   -0.0018 C   0  0  0  0  0  0  0  0  0  0  0  0
   -0.2874   -1.3173    0.3361 C   0  0  0  0  0  0  0  0  0  0  0  0
   -1.6184   -1.5127    0.6454 C   0  0  0  0  0  0  0  0  0  0  0  0
   -2.4396   -0.4358    0.9802 C   0  0  0  0  0  0  0  0  0  0  0  0
   -3.7794   -0.5977    1.2956 O   0  0  0  0  0  0  0  0  0  0  0  0
   -4.7745    0.0121    0.5661 C   0  0  0  0  0  0  0  0  0  0  0  0
   -5.6451    0.8926    1.1487 C   0  0  0  0  0  0  0  0  0  0  0  0
   -6.6604    1.5221    0.4300 C   0  0  0  0  0  0  0  0  0  0  0  0
   -6.7633    1.2259   -0.9092 C   0  0  0  0  0  0  0  0  0  0  0  0
   -7.7474    1.8314   -1.6219 F   0  0  0  0  0  0  0  0  0  0  0  0
   -5.9070    0.3459   -1.5308 C   0  0  0  0  0  0  0  0  0  0  0  0
   -4.9105   -0.2561   -0.7699 C   0  0  0  0  0  0  0  0  0  0  0  0
   -4.0461   -1.1372   -1.3726 F   0  0  0  0  0  0  0  0  0  0  0  0
   -1.9007    0.8336    0.9981 C   0  0  0  0  0  0  0  0  0  0  0  0
   -2.6590    1.7975    1.3036 O   0  0  0  0  0  0  0  0  0  0  0  0
   -0.6023    0.9906    0.6924 N   0  0  0  0  0  0  0  0  0  0  0  0
   -0.0664    2.3392    0.7206 C   0  0  0  0  0  0  0  0  0  0  0  0
    0.2193   -0.0325    0.3640 C   0  0  0  0  0  0  0  0  0  0  0  0
    1.5104    0.1272    0.0604 N   0  0  0  0  0  0  0  0  0  0  0  0
  1  2  1  0
  2  3  1  0
  3  4  1  0
  4  5  2  0
  4  6  1  0
  6  7  1  0
  9  8  1  6
  9 10  1  0
 10 11  1  0
 11 12  1  0
 12 13  2  0
 13 14  1  0
 14 15  2  0
  9 16  1  0
 16 17  1  0
 17 18  2  0
 18 19  1  0
 19 20  2  0
 20 21  1  0
 21 22  2  0
 22 23  1  0
 23 24  1  0
 24 25  2  0
 25 26  1  0
 26 27  2  0
 27 28  1  0
 27 29  1  0
 29 30  2  0
 30 31  1  0
 22 32  1  0
 32 33  2  0
 32 34  1  0
 34 35  1  0
 34 36  1  0
 36 37  2  0
 15 11  1  0
 37 17  1  0
 36 20  1  0
 30 24  1  0
M  END

