
     RDKit          3D

 46 49  0  0  0  0  0  0  0  0999 V2000
    4.0598   -0.7777   -2.6108 C   0  0  0  0  0  0  0  0  0  0  0  0
    4.7059   -1.5427   -1.3099 C   0  0  1  0  0  0  0  0  0  0  0  0
    6.0100   -0.7538   -1.4077 O   0  0  0  0  0  0  0  0  0  0  0  0
    4.0522   -0.4944   -0.2452 C   0  0  0  0  0  0  0  0  0  0  0  0
    2.6130   -0.6415   -0.4955 C   0  0  0  0  0  0  0  0  0  0  0  0
    2.1611   -1.4175   -1.3452 O   0  0  0  0  0  0  0  0  0  0  0  0
    1.7231    0.1574    0.2903 N   0  0  0  0  0  0  0  0  0  0  0  0
    0.2938    0.0628    0.0962 C   0  0  0  0  0  0  0  0  0  0  0  0
   -0.4274    0.9970    1.0360 C   0  0  0  0  0  0  0  0  0  0  0  0
   -1.8827    0.8385    0.7726 C   0  0  0  0  0  0  0  0  0  0  0  0
   -2.5513   -0.1281    1.5133 C   0  0  0  0  0  0  0  0  0  0  0  0
   -3.9077   -0.2529    1.2459 C   0  0  0  0  0  0  0  0  0  0  0  0
   -4.5524    0.5211    0.3154 C   0  0  0  0  0  0  0  0  0  0  0  0
   -5.9110    0.3416    0.1000 O   0  0  0  0  0  0  0  0  0  0  0  0
   -3.8590    1.4725   -0.4035 C   0  0  0  0  0  0  0  0  0  0  0  0
   -2.5273    1.6176   -0.1627 C   0  0  0  0  0  0  0  0  0  0  0  0
   -5.4963    3.3698   -0.5487 C   0  0  0  0  0  0  0  0  0  0  0  0
   -4.7912    1.9104   -1.0467 C   0  0  2  0  0  0  0  0  0  0  0  0
   -5.8116    1.0788   -0.0442 C   0  0  0  0  0  0  0  0  0  0  0  0
   -5.4823   -0.2910   -0.2141 N   0  0  0  0  0  0  0  0  0  0  0  0
   -4.6094   -0.9602    0.5149 N   0  0  0  0  0  0  0  0  0  0  0  0
   -4.5181   -2.2360    0.1109 C   0  0  0  0  0  0  0  0  0  0  0  0
   -5.3784   -2.3457   -0.9139 N   0  0  0  0  0  0  0  0  0  0  0  0
   -5.9524   -1.1773   -1.1032 N   0  0  0  0  0  0  0  0  0  0  0  0
   -3.6544    2.0370    0.0368 N   0  0  0  0  0  0  0  0  0  0  0  0
   -2.5255    1.2012   -0.1622 C   0  0  0  0  0  0  0  0  0  0  0  0
   -2.3951    0.3646   -1.2021 N   0  0  0  0  0  0  0  0  0  0  0  0
   -1.2920   -0.4226   -1.3556 C   0  0  0  0  0  0  0  0  0  0  0  0
   -0.2994   -0.3368   -0.4026 C   0  0  0  0  0  0  0  0  0  0  0  0
    0.8344   -1.1175   -0.5213 C   0  0  0  0  0  0  0  0  0  0  0  0
    1.8125   -1.0182    0.4381 C   0  0  0  0  0  0  0  0  0  0  0  0
    2.9525   -1.8006    0.3222 O   0  0  0  0  0  0  0  0  0  0  0  0
    4.1646   -1.1311    0.2279 C   0  0  0  0  0  0  0  0  0  0  0  0
    5.1397   -1.3398    1.1708 C   0  0  0  0  0  0  0  0  0  0  0  0
    6.3617   -0.6852    1.1036 C   0  0  0  0  0  0  0  0  0  0  0  0
    6.5898    0.1983    0.0530 C   0  0  0  0  0  0  0  0  0  0  0  0
    7.7734    0.8418   -0.0251 F   0  0  0  0  0  0  0  0  0  0  0  0
    5.6233    0.4083   -0.8859 C   0  0  0  0  0  0  0  0  0  0  0  0
    4.4151   -0.2476   -0.8076 C   0  0  0  0  0  0  0  0  0  0  0  0
    3.4646   -0.0363   -1.7375 F   0  0  0  0  0  0  0  0  0  0  0  0
    1.6276   -0.1460    1.4810 C   0  0  0  0  0  0  0  0  0  0  0  0
    2.5259   -0.0570    2.3591 O   0  0  0  0  0  0  0  0  0  0  0  0
    0.5419    0.6167    1.6155 N   0  0  0  0  0  0  0  0  0  0  0  0
    0.3394    1.5432    2.7183 C   0  0  0  0  0  0  0  0  0  0  0  0
   -0.4188    0.5211    0.6758 C   0  0  0  0  0  0  0  0  0  0  0  0
   -1.5418    1.2576    0.7430 N   0  0  0  0  0  0  0  0  0  0  0  0
  2  1  1  6
  2  3  1  0
  2  4  1  0
  4  5  1  0
  5  6  2  0
  5  7  1  0
  7  8  1  0
  8  9  1  0
  9 10  1  0
 10 11  2  0
 11 12  1  0
 12 13  2  0
 13 14  1  0
 13 15  1  0
 15 16  2  0
 18 17  1  1
 18 19  1  0
 19 20  1  0
 20 21  1  0
 21 22  2  0
 22 23  1  0
 23 24  2  0
 18 25  1  0
 25 26  1  0
 26 27  2  0
 27 28  1  0
 28 29  2  0
 29 30  1  0
 30 31  2  0
 31 32  1  0
 32 33  1  0
 33 34  2  0
 34 35  1  0
 35 36  2  0
 36 37  1  0
 36 38  1  0
 38 39  2  0
 39 40  1  0
 31 41  1  0
 41 42  2  0
 41 43  1  0
 43 44  1  0
 43 45  1  0
 45 46  2  0
 16 10  1  0
 24 20  1  0
 46 26  1  0
 45 29  1  0
 39 33  1  0
M  END

