
     RDKit          3D

 42 44  0  0  0  0  0  0  0  0999 V2000
    2.5777    0.3550   -1.6630 C   0  0  0  0  0  0  0  0  0  0  0  0
    3.1217   -0.3820   -0.5160 C   0  0  0  0  0  0  0  0  0  0  0  0
    4.2701    0.2895    0.1841 C   0  0  0  0  0  0  0  0  0  0  0  0
    2.2620   -1.2131    0.3079 C   0  0  0  0  0  0  0  0  0  0  0  0
    1.1221   -0.6694    1.0288 C   0  0  0  0  0  0  0  0  0  0  0  0
    0.0334   -0.0382    0.3275 C   0  0  0  0  0  0  0  0  0  0  0  0
   -0.0171    0.0491   -0.9205 O   0  0  0  0  0  0  0  0  0  0  0  0
   -1.0520    0.5231    1.0532 N   0  0  0  0  0  0  0  0  0  0  0  0
   -2.1398    1.1548    0.3306 C   0  0  0  0  0  0  0  0  0  0  0  0
   -2.6711   -0.1386   -0.5884 C   0  0  1  0  0  0  0  0  0  0  0  0
   -3.7226   -0.6448    0.6239 C   0  0  0  0  0  0  0  0  0  0  0  0
   -3.7845    0.7145   -1.2550 O   0  0  0  0  0  0  0  0  0  0  0  0
    4.1171    0.8433    0.3844 C   0  0  0  0  0  0  0  0  0  0  0  0
    4.5702   -0.2920   -0.7318 C   0  0  2  0  0  0  0  0  0  0  0  0
    5.9546    0.5192   -1.1280 C   0  0  0  0  0  0  0  0  0  0  0  0
    6.6815    0.5816    0.1071 N   0  0  0  0  0  0  0  0  0  0  0  0
    6.5978    1.5480    1.0136 N   0  0  0  0  0  0  0  0  0  0  0  0
    7.4184    1.2508    2.0118 C   0  0  0  0  0  0  0  0  0  0  0  0
    8.0220    0.0937    1.7350 N   0  0  0  0  0  0  0  0  0  0  0  0
    7.5547   -0.2983    0.5618 N   0  0  0  0  0  0  0  0  0  0  0  0
    3.7408    0.3865   -1.8937 N   0  0  0  0  0  0  0  0  0  0  0  0
    2.3368    0.4606   -1.6087 C   0  0  0  0  0  0  0  0  0  0  0  0
    1.5472    1.0203   -2.5342 N   0  0  0  0  0  0  0  0  0  0  0  0
    0.2146    1.1497   -2.3875 C   0  0  0  0  0  0  0  0  0  0  0  0
   -0.3951    0.6878   -1.2285 C   0  0  0  0  0  0  0  0  0  0  0  0
   -1.7274    0.7858   -1.0178 C   0  0  0  0  0  0  0  0  0  0  0  0
   -2.3462    0.3055    0.1812 C   0  0  0  0  0  0  0  0  0  0  0  0
   -3.6489    0.4872    0.2080 O   0  0  0  0  0  0  0  0  0  0  0  0
   -4.8289   -0.1315    0.2591 C   0  0  0  0  0  0  0  0  0  0  0  0
   -5.6950    0.0193   -0.8717 C   0  0  0  0  0  0  0  0  0  0  0  0
   -6.9171   -0.5644   -0.9293 C   0  0  0  0  0  0  0  0  0  0  0  0
   -7.4326   -1.3453    0.0792 C   0  0  0  0  0  0  0  0  0  0  0  0
   -8.6573   -1.9117   -0.0207 F   0  0  0  0  0  0  0  0  0  0  0  0
   -6.6219   -1.5029    1.1718 C   0  0  0  0  0  0  0  0  0  0  0  0
   -5.3525   -0.9083    1.2552 C   0  0  0  0  0  0  0  0  0  0  0  0
   -4.6245   -1.0984    2.3962 F   0  0  0  0  0  0  0  0  0  0  0  0
   -1.4583   -0.2425    1.0537 C   0  0  0  0  0  0  0  0  0  0  0  0
   -1.8610   -0.6929    2.1296 O   0  0  0  0  0  0  0  0  0  0  0  0
   -0.1322   -0.3339    0.8305 N   0  0  0  0  0  0  0  0  0  0  0  0
    0.7335   -0.9453    1.8415 C   0  0  0  0  0  0  0  0  0  0  0  0
    0.4363    0.1170   -0.2927 C   0  0  0  0  0  0  0  0  0  0  0  0
    1.7735    0.0112   -0.4903 N   0  0  0  0  0  0  0  0  0  0  0  0
  1  2  1  0
  2  3  1  0
  2  4  1  0
  4  5  1  0
  5  6  1  0
  6  7  2  0
  6  8  1  0
  8  9  1  0
  9 10  1  0
 10 11  1  1
 10 12  1  0
 14 13  1  1
 14 15  1  0
 15 16  1  0
 16 17  1  0
 17 18  2  0
 18 19  1  0
 19 20  2  0
 14 21  1  0
 21 22  1  0
 22 23  2  0
 23 24  1  0
 24 25  2  0
 25 26  1  0
 26 27  2  0
 27 28  1  0
 28 29  1  0
 29 30  2  0
 30 31  1  0
 31 32  2  0
 32 33  1  0
 32 34  1  0
 34 35  2  0
 35 36  1  0
 27 37  1  0
 37 38  2  0
 37 39  1  0
 39 40  1  0
 39 41  1  0
 41 42  2  0
 20 16  1  0
 42 22  1  0
 41 25  1  0
 35 29  1  0
M  END

