
     RDKit          3D

 52 56  0  0  0  0  0  0  0  0999 V2000
    4.5846   -0.1422   -1.6814 C   0  0  0  0  0  0  0  0  0  0  0  0
    5.0671   -0.0365   -0.1021 C   0  0  2  0  0  0  0  0  0  0  0  0
    3.8004   -0.9311    0.4611 C   0  0  0  0  0  0  0  0  0  0  0  0
    4.0477   -0.9577    1.9126 N   0  0  0  0  0  0  0  0  0  0  0  0
    3.6111   -0.0915    2.7954 N   0  0  0  0  0  0  0  0  0  0  0  0
    4.0415   -0.4560    3.9975 C   0  0  0  0  0  0  0  0  0  0  0  0
    4.7598   -1.5731    3.8507 N   0  0  0  0  0  0  0  0  0  0  0  0
    4.7507   -1.8626    2.5651 N   0  0  0  0  0  0  0  0  0  0  0  0
    4.3891    1.3525    0.1591 N   0  0  0  0  0  0  0  0  0  0  0  0
    3.0256    1.5213   -0.0622 C   0  0  0  0  0  0  0  0  0  0  0  0
    2.3997    2.6852    0.1528 N   0  0  0  0  0  0  0  0  0  0  0  0
    1.0831    2.8001   -0.0770 C   0  0  0  0  0  0  0  0  0  0  0  0
    0.3494    1.7367   -0.5349 C   0  0  0  0  0  0  0  0  0  0  0  0
   -1.0119    1.7762   -0.7943 C   0  0  0  0  0  0  0  0  0  0  0  0
   -1.6864    0.6571   -1.2559 C   0  0  0  0  0  0  0  0  0  0  0  0
   -3.0356    0.7640   -1.4910 O   0  0  0  0  0  0  0  0  0  0  0  0
   -3.9988    0.0041   -0.8857 C   0  0  0  0  0  0  0  0  0  0  0  0
   -3.5987   -0.9499    0.0375 C   0  0  0  0  0  0  0  0  0  0  0  0
   -4.5196   -1.7670    0.7005 C   0  0  0  0  0  0  0  0  0  0  0  0
   -5.8497   -1.5658    0.3796 C   0  0  0  0  0  0  0  0  0  0  0  0
   -6.8050   -2.3280    0.9893 F   0  0  0  0  0  0  0  0  0  0  0  0
   -6.2654   -0.6277   -0.5306 C   0  0  0  0  0  0  0  0  0  0  0  0
   -5.3271    0.1829   -1.1858 C   0  0  0  0  0  0  0  0  0  0  0  0
   -5.6890    1.1216   -2.0922 F   0  0  0  0  0  0  0  0  0  0  0  0
   -1.0348   -0.5329   -1.4745 C   0  0  0  0  0  0  0  0  0  0  0  0
   -1.6463   -1.5619   -1.8978 O   0  0  0  0  0  0  0  0  0  0  0  0
    0.2917   -0.5415   -1.2126 N   0  0  0  0  0  0  0  0  0  0  0  0
    0.9787   -1.8025   -1.4453 C   0  0  0  0  0  0  0  0  0  0  0  0
    0.9845    0.5138   -0.7657 C   0  0  0  0  0  0  0  0  0  0  0  0
    2.3036    0.4777   -0.5120 N   0  0  0  0  0  0  0  0  0  0  0  0
    6.0696   -1.3996    2.9797 N   0  0  0  0  0  0  0  0  0  0  0  0
    4.7884   -1.7769    2.4873 C   0  0  0  0  0  0  0  0  0  0  0  0
    4.1395   -2.7965    2.9227 N   0  0  0  0  0  4  0  0  0  0  0  0
    4.2099   -0.9902    1.4753 N   0  0  0  0  0  0  0  0  0  0  0  0
    2.9089   -1.3321    0.9427 C   0  0  0  0  0  0  0  0  0  0  0  0
    2.5552   -0.3150   -0.1130 C   0  0  0  0  0  0  0  0  0  0  0  0
    2.5290    1.0658    0.5517 C   0  0  0  0  0  0  0  0  0  0  0  0
    2.1763    2.0543   -0.5102 C   0  0  0  0  0  0  0  0  0  0  0  0
    0.8179    1.6848   -1.0645 C   0  0  0  0  0  0  0  0  0  0  0  0
    0.2442    0.6840   -0.5876 O   0  0  0  0  0  0  0  0  0  0  0  0
    0.2097    2.4211   -2.0718 N   0  0  0  0  0  0  0  0  0  0  0  0
   -1.0166    2.2271   -2.6699 C   0  0  0  0  0  0  0  0  0  0  0  0
   -2.2051    2.3609   -1.8701 C   0  0  0  0  0  0  0  0  0  0  0  0
   -2.4666    1.5139   -0.7273 C   0  0  0  0  0  0  0  0  0  0  0  0
   -2.4168    1.7882    0.6400 C   0  0  0  0  0  0  0  0  0  0  0  0
   -2.7778    0.6933    1.3278 N   0  0  0  0  0  0  0  0  0  0  0  0
   -3.0692   -0.3081    0.4844 C   0  0  0  0  0  0  0  0  0  0  0  0
   -3.4884   -1.6283    0.6544 C   0  0  0  0  0  0  0  0  0  0  0  0
   -3.7037   -2.4051   -0.4567 C   0  0  0  0  0  0  0  0  0  0  0  0
   -3.5162   -1.9135   -1.7220 C   0  0  0  0  0  0  0  0  0  0  0  0
   -3.1050   -0.6193   -1.8916 C   0  0  0  0  0  0  0  0  0  0  0  0
   -2.8832    0.1786   -0.7811 C   0  0  0  0  0  0  0  0  0  0  0  0
  2  1  1  6
  2  3  1  0
  3  4  1  0
  4  5  1  0
  5  6  2  0
  6  7  1  0
  7  8  2  0
  2  9  1  0
  9 10  1  0
 10 11  2  0
 11 12  1  0
 12 13  2  0
 13 14  1  0
 14 15  2  0
 15 16  1  0
 16 17  1  0
 17 18  2  0
 18 19  1  0
 19 20  2  0
 20 21  1  0
 20 22  1  0
 22 23  2  0
 23 24  1  0
 15 25  1  0
 25 26  2  0
 25 27  1  0
 27 28  1  0
 27 29  1  0
 29 30  2  0
 31 32  1  0
 32 33  2  0
 32 34  1  0
 34 35  1  0
 35 36  1  0
 36 37  1  0
 37 38  1  0
 38 39  1  0
 39 40  2  0
 39 41  1  0
 41 42  1  0
 42 43  1  0
 43 44  1  0
 44 45  2  0
 45 46  1  0
 46 47  1  0
 47 48  2  0
 48 49  1  0
 49 50  2  0
 50 51  1  0
 51 52  2  0
  8  4  1  0
 30 10  1  0
 52 44  1  0
 29 13  1  0
 52 47  1  0
 23 17  1  0
M  CHG  1  33   1
M  END

