
     RDKit          3D

 42 45  0  0  0  0  0  0  0  0999 V2000
    3.8595    0.3082    1.2726 C   0  0  0  0  0  0  0  0  0  0  0  0
    3.5637    0.4710   -0.2027 C   0  0  0  0  0  0  0  0  0  0  0  0
    2.6107   -0.5190   -0.6755 N   0  0  0  0  0  0  0  0  0  0  0  0
    1.2910   -0.6216   -0.1355 C   0  0  0  0  0  0  0  0  0  0  0  0
    1.0168    0.2022    0.7727 O   0  0  0  0  0  0  0  0  0  0  0  0
    0.3203   -1.6315   -0.6185 C   0  0  0  0  0  0  0  0  0  0  0  0
   -1.0002   -1.5787    0.0540 C   0  0  0  0  0  0  0  0  0  0  0  0
   -1.7482   -0.3312   -0.0667 C   0  0  0  0  0  0  0  0  0  0  0  0
   -1.6821    0.7325    0.7855 C   0  0  0  0  0  0  0  0  0  0  0  0
   -2.5164    1.7237    0.3639 N   0  0  0  0  0  0  0  0  0  0  0  0
   -3.0923    1.2526   -0.7553 C   0  0  0  0  0  0  0  0  0  0  0  0
   -2.6228   -0.0082   -1.0220 N   0  0  0  0  0  0  0  0  0  0  0  0
    3.7173    1.8723    0.4627 C   0  0  0  0  0  0  0  0  0  0  0  0
    3.7200    1.4992    2.0782 C   0  0  2  0  0  0  0  0  0  0  0  0
    5.3657    1.5071    2.1986 C   0  0  0  0  0  0  0  0  0  0  0  0
    5.8865    0.5392    1.3195 N   0  0  0  0  0  0  0  0  0  0  0  0
    6.1099   -0.7205    1.6386 N   0  0  0  0  0  0  0  0  0  0  0  0
    6.6009   -1.3597    0.5846 C   0  0  0  0  0  0  0  0  0  0  0  0
    6.6869   -0.4847   -0.4136 N   0  0  0  0  0  0  0  0  0  0  0  0
    6.2445    0.6681    0.0606 N   0  0  0  0  0  0  0  0  0  0  0  0
    3.5918   -0.0565    1.8243 N   0  0  0  0  0  0  0  0  0  0  0  0
    2.3964   -0.3786    1.1061 C   0  0  0  0  0  0  0  0  0  0  0  0
    2.1274   -1.6666    0.8031 N   0  0  0  0  0  0  0  0  0  0  0  0
    1.0395   -2.0670    0.1371 C   0  0  0  0  0  0  0  0  0  0  0  0
    0.1173   -1.1105   -0.2769 C   0  0  0  0  0  0  0  0  0  0  0  0
   -1.0238   -1.4463   -0.9658 C   0  0  0  0  0  0  0  0  0  0  0  0
   -1.8667   -0.4174   -1.3262 C   0  0  0  0  0  0  0  0  0  0  0  0
   -3.0192   -0.7495   -2.0211 O   0  0  0  0  0  0  0  0  0  0  0  0
   -4.2469   -0.4330   -1.4754 C   0  0  0  0  0  0  0  0  0  0  0  0
   -5.1112    0.4054   -2.1584 C   0  0  0  0  0  0  0  0  0  0  0  0
   -6.3468    0.7412   -1.6393 C   0  0  0  0  0  0  0  0  0  0  0  0
   -6.7661    0.2584   -0.4286 C   0  0  0  0  0  0  0  0  0  0  0  0
   -7.9666    0.5743    0.0936 F   0  0  0  0  0  0  0  0  0  0  0  0
   -5.9132   -0.5825    0.2687 C   0  0  0  0  0  0  0  0  0  0  0  0
   -4.6756   -0.9186   -0.2519 C   0  0  0  0  0  0  0  0  0  0  0  0
   -3.8474   -1.7383    0.4308 F   0  0  0  0  0  0  0  0  0  0  0  0
   -1.6023    0.8994   -1.0225 C   0  0  0  0  0  0  0  0  0  0  0  0
   -2.3784    1.8313   -1.3560 O   0  0  0  0  0  0  0  0  0  0  0  0
   -0.4891    1.1963   -0.3540 N   0  0  0  0  0  0  0  0  0  0  0  0
   -0.2162    2.5983   -0.0356 C   0  0  0  0  0  0  0  0  0  0  0  0
    0.3719    0.2129    0.0219 C   0  0  0  0  0  0  0  0  0  0  0  0
    1.4936    0.5224    0.6967 N   0  0  0  0  0  0  0  0  0  0  0  0
  1  2  1  0
  2  3  1  0
  3  4  1  0
  4  5  2  0
  4  6  1  0
  6  7  1  0
  7  8  1  0
  8  9  2  0
  9 10  1  0
 10 11  1  0
 11 12  2  0
 14 13  1  6
 14 15  1  0
 15 16  1  0
 16 17  1  0
 17 18  2  0
 18 19  1  0
 19 20  2  0
 14 21  1  0
 21 22  1  0
 22 23  2  0
 23 24  1  0
 24 25  2  0
 25 26  1  0
 26 27  2  0
 27 28  1  0
 28 29  1  0
 29 30  2  0
 30 31  1  0
 31 32  2  0
 32 33  1  0
 32 34  1  0
 34 35  2  0
 35 36  1  0
 27 37  1  0
 37 38  2  0
 37 39  1  0
 39 40  1  0
 39 41  1  0
 41 42  2  0
 12  8  1  0
 20 16  1  0
 42 22  1  0
 41 25  1  0
 35 29  1  0
M  END

