
     RDKit          3D

 43 45  0  0  0  0  0  0  0  0999 V2000
   -5.3158   -0.2810   -0.0479 C   0  0  0  0  0  0  0  0  0  0  0  0
   -4.0489   -0.7696    0.5856 C   0  0  0  0  0  0  0  0  0  0  0  0
   -2.9587    0.2406    0.3570 C   0  0  0  0  0  0  0  0  0  0  0  0
   -3.1405    1.2950   -0.2663 O   0  0  0  0  0  0  0  0  0  0  0  0
   -1.6647   -0.0327    0.8819 N   0  0  0  0  0  0  0  0  0  0  0  0
   -0.6071    0.9434    0.6622 C   0  0  0  0  0  0  0  0  0  0  0  0
    0.6783    0.4242    1.3176 C   0  0  0  0  0  0  0  0  0  0  0  0
    1.0617   -0.9169    0.6851 C   0  0  0  0  0  0  0  0  0  0  0  0
    1.2971   -0.7568   -0.8069 C   0  0  0  0  0  0  0  0  0  0  0  0
    2.3816    0.1981   -1.0640 N   0  0  0  0  0  0  0  0  0  0  0  0
    3.6918   -0.0516   -0.5559 C   0  0  0  0  0  0  0  0  0  0  0  0
    4.7774    0.8473   -0.7801 N   0  0  0  0  0  0  0  0  0  0  0  0
    3.8478   -1.1398    0.1220 N   0  0  0  0  0  4  0  0  0  0  0  0
   -4.3724   -2.3872    0.5817 C   0  0  0  0  0  0  0  0  0  0  0  0
   -4.7699   -0.8356    1.0298 C   0  0  2  0  0  0  0  0  0  0  0  0
   -6.1012   -0.8123    0.0301 C   0  0  0  0  0  0  0  0  0  0  0  0
   -6.6259    0.5157    0.2734 N   0  0  0  0  0  0  0  0  0  0  0  0
   -6.3559    1.6487   -0.3409 N   0  0  0  0  0  0  0  0  0  0  0  0
   -7.0688    2.6246    0.2128 C   0  0  0  0  0  0  0  0  0  0  0  0
   -7.7902    2.0806    1.1856 N   0  0  0  0  0  0  0  0  0  0  0  0
   -7.5249    0.7868    1.2302 N   0  0  0  0  0  0  0  0  0  0  0  0
   -3.8329   -0.1900   -0.0734 N   0  0  0  0  0  0  0  0  0  0  0  0
   -2.4532   -0.5693    0.0946 C   0  0  0  0  0  0  0  0  0  0  0  0
   -2.0343   -1.3794    1.0824 N   0  0  0  0  0  0  0  0  0  0  0  0
   -0.7473   -1.7369    1.2441 C   0  0  0  0  0  0  0  0  0  0  0  0
    0.2216   -1.2737    0.3789 C   0  0  0  0  0  0  0  0  0  0  0  0
    1.5555   -1.6024    0.4901 C   0  0  0  0  0  0  0  0  0  0  0  0
    2.4624   -1.0900   -0.4260 C   0  0  0  0  0  0  0  0  0  0  0  0
    3.8167   -1.3838   -0.3670 O   0  0  0  0  0  0  0  0  0  0  0  0
    4.6954   -0.3224   -0.2046 C   0  0  0  0  0  0  0  0  0  0  0  0
    4.2568    0.9964   -0.1007 C   0  0  0  0  0  0  0  0  0  0  0  0
    5.1889    1.9999    0.0593 C   0  0  0  0  0  0  0  0  0  0  0  0
    6.5476    1.7726    0.1235 C   0  0  0  0  0  0  0  0  0  0  0  0
    7.4509    2.7832    0.2825 F   0  0  0  0  0  0  0  0  0  0  0  0
    6.9598    0.4600    0.0186 C   0  0  0  0  0  0  0  0  0  0  0  0
    6.0478   -0.5797   -0.1438 C   0  0  0  0  0  0  0  0  0  0  0  0
    6.4472   -1.8687   -0.2471 F   0  0  0  0  0  0  0  0  0  0  0  0
    2.0120   -0.2678   -1.4223 C   0  0  0  0  0  0  0  0  0  0  0  0
    2.7741    0.2437   -2.3015 O   0  0  0  0  0  0  0  0  0  0  0  0
    0.7182    0.0323   -1.5049 N   0  0  0  0  0  0  0  0  0  0  0  0
    0.2312    0.9126   -2.5704 C   0  0  0  0  0  0  0  0  0  0  0  0
   -0.1975   -0.4416   -0.6384 C   0  0  0  0  0  0  0  0  0  0  0  0
   -1.5115   -0.1162   -0.7502 N   0  0  0  0  0  0  0  0  0  0  0  0
  1  2  1  0
  2  3  1  0
  3  4  2  0
  3  5  1  0
  5  6  1  0
  6  7  1  0
  7  8  1  0
  8  9  1  0
  9 10  1  0
 10 11  1  0
 11 12  1  0
 11 13  2  0
 15 14  1  6
 15 16  1  0
 16 17  1  0
 17 18  1  0
 18 19  2  0
 19 20  1  0
 20 21  2  0
 15 22  1  0
 22 23  1  0
 23 24  2  0
 24 25  1  0
 25 26  2  0
 26 27  1  0
 27 28  2  0
 28 29  1  0
 29 30  1  0
 30 31  2  0
 31 32  1  0
 32 33  2  0
 33 34  1  0
 33 35  1  0
 35 36  2  0
 36 37  1  0
 28 38  1  0
 38 39  2  0
 38 40  1  0
 40 41  1  0
 40 42  1  0
 42 43  2  0
 21 17  1  0
 43 23  1  0
 42 26  1  0
 36 30  1  0
M  CHG  1  13   1
M  END

