
     RDKit          3D

 41 43  0  0  0  0  0  0  0  0999 V2000
    4.3929    0.4689    1.1000 C   0  0  0  0  0  0  0  0  0  0  0  0
    3.3781    1.0940    0.1876 C   0  0  0  0  0  0  0  0  0  0  0  0
    2.0017    0.6047    0.4499 C   0  0  0  0  0  0  0  0  0  0  0  0
    1.8712   -0.2469    1.3924 O   0  0  0  0  0  0  0  0  0  0  0  0
    0.8565    0.9998   -0.2459 N   0  0  0  0  0  0  0  0  0  0  0  0
   -0.4778    0.5334   -0.0018 C   0  0  0  0  0  0  0  0  0  0  0  0
   -0.6265   -0.9653   -0.1742 C   0  0  0  0  0  0  0  0  0  0  0  0
   -2.0926   -1.3328    0.0895 C   0  0  0  0  0  0  0  0  0  0  0  0
   -2.8872   -0.5618   -0.9406 C   0  0  0  0  0  0  0  0  0  0  0  0
   -3.3567   -1.2514   -2.0281 O   0  0  0  0  0  1  0  0  0  0  0  0
   -3.0596    0.6574   -0.7235 O   0  0  0  0  0  0  0  0  0  0  0  0
    4.2634   -0.4384    1.8709 C   0  0  0  0  0  0  0  0  0  0  0  0
    4.4255   -1.8929    1.1028 C   0  0  2  0  0  0  0  0  0  0  0  0
    3.9125   -1.2828   -0.3409 C   0  0  0  0  0  0  0  0  0  0  0  0
    4.9270   -0.2680   -0.5510 N   0  0  0  0  0  0  0  0  0  0  0  0
    6.0465   -0.5101   -1.1909 N   0  0  0  0  0  0  0  0  0  0  0  0
    6.7634    0.5950   -1.2196 C   0  0  0  0  0  0  0  0  0  0  0  0
    6.0648    1.5380   -0.5809 N   0  0  0  0  0  0  0  0  0  0  0  0
    4.9377    0.9815   -0.1787 N   0  0  0  0  0  0  0  0  0  0  0  0
    3.0345   -2.4773    1.4809 N   0  0  0  0  0  0  0  0  0  0  0  0
    1.8423   -1.8824    1.1438 C   0  0  0  0  0  0  0  0  0  0  0  0
    0.6595   -2.4369    1.5016 N   0  0  0  0  0  0  0  0  0  0  0  0
   -0.5102   -1.8636    1.1752 C   0  0  0  0  0  0  0  0  0  0  0  0
   -0.5838   -0.6907    0.4653 C   0  0  0  0  0  0  0  0  0  0  0  0
   -1.7656   -0.1136    0.1366 C   0  0  0  0  0  0  0  0  0  0  0  0
   -1.7484    1.0599   -0.5756 C   0  0  0  0  0  0  0  0  0  0  0  0
   -2.9146    1.6838   -0.9330 O   0  0  0  0  0  0  0  0  0  0  0  0
   -4.1143    1.1344   -0.5781 C   0  0  0  0  0  0  0  0  0  0  0  0
   -5.0073    1.8203    0.2148 C   0  0  0  0  0  0  0  0  0  0  0  0
   -6.1879    1.2175    0.5340 C   0  0  0  0  0  0  0  0  0  0  0  0
   -6.5287   -0.0480    0.0991 C   0  0  0  0  0  0  0  0  0  0  0  0
   -7.6925   -0.6354    0.4171 F   0  0  0  0  0  0  0  0  0  0  0  0
   -5.6101   -0.7016   -0.6914 C   0  0  0  0  0  0  0  0  0  0  0  0
   -4.4040   -0.1386   -1.0430 C   0  0  0  0  0  0  0  0  0  0  0  0
   -3.5421   -0.8293   -1.8221 F   0  0  0  0  0  0  0  0  0  0  0  0
   -0.5558    1.6434   -0.9512 C   0  0  0  0  0  0  0  0  0  0  0  0
   -0.5115    2.7223   -1.6065 O   0  0  0  0  0  0  0  0  0  0  0  0
    0.5713    1.0290   -0.5989 N   0  0  0  0  0  0  0  0  0  0  0  0
    1.8245    1.6399   -0.9930 C   0  0  0  0  0  0  0  0  0  0  0  0
    0.6274   -0.1238    0.0996 C   0  0  0  0  0  0  0  0  0  0  0  0
    1.7766   -0.7315    0.4472 N   0  0  0  0  0  0  0  0  0  0  0  0
  1  2  1  0
  2  3  1  0
  3  4  2  0
  3  5  1  0
  5  6  1  0
  6  7  1  0
  7  8  1  0
  8  9  1  0
  9 10  1  0
  9 11  2  0
 13 12  1  1
 13 14  1  0
 14 15  1  0
 15 16  1  0
 16 17  2  0
 17 18  1  0
 18 19  2  0
 13 20  1  0
 20 21  1  0
 21 22  2  0
 22 23  1  0
 23 24  2  0
 24 25  1  0
 25 26  2  0
 26 27  1  0
 27 28  1  0
 28 29  2  0
 29 30  1  0
 30 31  2  0
 31 32  1  0
 31 33  1  0
 33 34  2  0
 34 35  1  0
 26 36  1  0
 36 37  2  0
 36 38  1  0
 38 39  1  0
 38 40  1  0
 40 41  2  0
 19 15  1  0
 41 21  1  0
 40 24  1  0
 34 28  1  0
M  RAD  1  10   2
M  END

