
     RDKit          3D

 44 46  0  0  0  0  0  0  0  0999 V2000
    3.6826    0.5629   -1.0829 C   0  0  0  0  0  0  0  0  0  0  0  0
    2.5522    0.8534   -0.1128 C   0  0  0  0  0  0  0  0  0  0  0  0
    2.6183    2.2514    0.4310 C   0  0  0  0  0  0  0  0  0  0  0  0
    2.4846   -0.1943    0.9805 C   0  0  0  0  0  0  0  0  0  0  0  0
    2.2519   -1.5385    0.3399 C   0  0  0  0  0  0  0  0  0  0  0  0
    1.0328   -1.6057   -0.4166 N   0  0  0  0  0  0  0  0  0  0  0  0
   -0.2626   -1.3930    0.1358 C   0  0  0  0  0  0  0  0  0  0  0  0
   -0.3202   -1.1309    1.3667 O   0  0  0  0  0  0  0  0  0  0  0  0
   -1.4962   -1.4788   -0.7147 C   0  0  0  0  0  0  0  0  0  0  0  0
   -2.6922   -1.2043    0.1680 C   0  0  0  0  0  0  0  0  0  0  0  0
   -2.5357    0.1729    0.7475 C   0  0  0  0  0  0  0  0  0  0  0  0
   -2.4672    1.1930   -0.3046 C   0  0  0  0  0  0  0  0  0  0  0  0
   -2.3204    2.5337    0.0907 O   0  0  0  0  0  1  0  0  0  0  0  0
   -2.5280    0.9783   -1.5302 O   0  0  0  0  0  0  0  0  0  0  0  0
    4.0663   -0.0371    1.6819 C   0  0  0  0  0  0  0  0  0  0  0  0
    4.8276   -1.2547    0.8502 C   0  0  2  0  0  0  0  0  0  0  0  0
    4.1916   -0.7972   -0.6058 C   0  0  0  0  0  0  0  0  0  0  0  0
    4.7219    0.5711   -0.7213 N   0  0  0  0  0  0  0  0  0  0  0  0
    5.8650    0.9395   -1.2760 N   0  0  0  0  0  0  0  0  0  0  0  0
    6.0041    2.2819   -1.1888 C   0  0  0  0  0  0  0  0  0  0  0  0
    4.9175    2.7284   -0.5665 N   0  0  0  0  0  0  0  0  0  0  0  0
    4.1554    1.6823   -0.2922 N   0  0  0  0  0  0  0  0  0  0  0  0
    3.7354   -2.3496    1.1223 N   0  0  0  0  0  0  0  0  0  0  0  0
    2.4276   -2.1726    0.7353 C   0  0  0  0  0  0  0  0  0  0  0  0
    1.5793   -3.1777    1.0211 N   0  0  0  0  0  0  0  0  0  0  0  0
    0.2803   -3.1489    0.7068 C   0  0  0  0  0  0  0  0  0  0  0  0
   -0.2602   -2.0655    0.0621 C   0  0  0  0  0  0  0  0  0  0  0  0
   -1.5946   -1.9892   -0.2833 C   0  0  0  0  0  0  0  0  0  0  0  0
   -2.0763   -0.8645   -0.9343 C   0  0  0  0  0  0  0  0  0  0  0  0
   -3.4224   -0.8120   -1.2710 O   0  0  0  0  0  0  0  0  0  0  0  0
   -4.2174    0.2160   -0.7479 C   0  0  0  0  0  0  0  0  0  0  0  0
   -4.8647    1.1071   -1.5823 C   0  0  0  0  0  0  0  0  0  0  0  0
   -5.6400    2.1080   -1.0323 C   0  0  0  0  0  0  0  0  0  0  0  0
   -5.7871    2.2442    0.3255 C   0  0  0  0  0  0  0  0  0  0  0  0
   -6.5476    3.2258    0.8684 F   0  0  0  0  0  0  0  0  0  0  0  0
   -5.1409    1.3549    1.1520 C   0  0  0  0  0  0  0  0  0  0  0  0
   -4.3611    0.3468    0.6304 C   0  0  0  0  0  0  0  0  0  0  0  0
   -3.7211   -0.5335    1.4408 F   0  0  0  0  0  0  0  0  0  0  0  0
   -1.1927    0.1550   -1.2190 C   0  0  0  0  0  0  0  0  0  0  0  0
   -1.5947    1.1918   -1.8094 O   0  0  0  0  0  0  0  0  0  0  0  0
    0.1057    0.0531   -0.8696 N   0  0  0  0  0  0  0  0  0  0  0  0
    1.0279    1.1316   -1.1738 C   0  0  0  0  0  0  0  0  0  0  0  0
    0.6070   -1.0322   -0.2329 C   0  0  0  0  0  0  0  0  0  0  0  0
    1.9080   -1.1025    0.1017 N   0  0  0  0  0  0  0  0  0  0  0  0
  1  2  1  0
  2  3  1  0
  2  4  1  0
  4  5  1  0
  5  6  1  0
  6  7  1  0
  7  8  2  0
  7  9  1  0
  9 10  1  0
 10 11  1  0
 11 12  1  0
 12 13  1  0
 12 14  2  0
 16 15  1  1
 16 17  1  0
 17 18  1  0
 18 19  1  0
 19 20  2  0
 20 21  1  0
 21 22  2  0
 16 23  1  0
 23 24  1  0
 24 25  2  0
 25 26  1  0
 26 27  2  0
 27 28  1  0
 28 29  2  0
 29 30  1  0
 30 31  1  0
 31 32  2  0
 32 33  1  0
 33 34  2  0
 34 35  1  0
 34 36  1  0
 36 37  2  0
 37 38  1  0
 29 39  1  0
 39 40  2  0
 39 41  1  0
 41 42  1  0
 41 43  1  0
 43 44  2  0
 22 18  1  0
 44 24  1  0
 43 27  1  0
 37 31  1  0
M  RAD  1  13   2
M  END

