
     RDKit          3D

 45 47  0  0  0  0  0  0  0  0999 V2000
    4.2823    0.9680    1.9499 C   0  0  0  0  0  0  0  0  0  0  0  0
    4.1085    0.0247    3.2975 C   0  0  2  0  0  0  0  0  0  0  0  0
    3.9801   -1.3732    2.4390 C   0  0  0  0  0  0  0  0  0  0  0  0
    5.2509   -1.3985    1.7381 N   0  0  0  0  0  0  0  0  0  0  0  0
    6.3466   -1.9646    2.2139 N   0  0  0  0  0  0  0  0  0  0  0  0
    7.2973   -1.7781    1.2816 C   0  0  0  0  0  0  0  0  0  0  0  0
    6.7461   -1.1012    0.2641 N   0  0  0  0  0  0  0  0  0  0  0  0
    5.4877   -0.8703    0.5497 N   0  0  0  0  0  0  0  0  0  0  0  0
    2.5622    0.2625    3.3912 N   0  0  0  0  0  0  0  0  0  0  0  0
    1.7886   -0.0564    2.2413 C   0  0  0  0  0  0  0  0  0  0  0  0
    2.3042   -0.5361    1.1113 N   0  0  0  0  0  0  0  0  0  0  0  0
    1.5152   -0.8152    0.0666 C   0  0  0  0  0  0  0  0  0  0  0  0
    0.1506   -0.6161    0.1263 C   0  0  0  0  0  0  0  0  0  0  0  0
   -0.7043   -0.8844   -0.9115 C   0  0  0  0  0  0  0  0  0  0  0  0
   -2.0510   -0.6384   -0.7167 C   0  0  0  0  0  0  0  0  0  0  0  0
   -2.9893   -0.8867   -1.7292 O   0  0  0  0  0  0  0  0  0  0  0  0
   -3.7981    0.0947   -2.2680 C   0  0  0  0  0  0  0  0  0  0  0  0
   -5.1639   -0.0055   -2.1917 C   0  0  0  0  0  0  0  0  0  0  0  0
   -5.9818    0.9848   -2.7354 C   0  0  0  0  0  0  0  0  0  0  0  0
   -5.4625    2.0917   -3.3644 C   0  0  0  0  0  0  0  0  0  0  0  0
   -6.2590    3.0661   -3.8998 F   0  0  0  0  0  0  0  0  0  0  0  0
   -4.0913    2.1918   -3.4408 C   0  0  0  0  0  0  0  0  0  0  0  0
   -3.2691    1.1971   -2.8946 C   0  0  0  0  0  0  0  0  0  0  0  0
   -1.9317    1.3364   -2.9926 F   0  0  0  0  0  0  0  0  0  0  0  0
   -2.5325   -0.1402    0.4761 C   0  0  0  0  0  0  0  0  0  0  0  0
   -3.7689    0.0616    0.5893 O   0  0  0  0  0  0  0  0  0  0  0  0
   -1.6894    0.1210    1.4904 N   0  0  0  0  0  0  0  0  0  0  0  0
   -2.2308    0.6393    2.7163 C   0  0  0  0  0  0  0  0  0  0  0  0
   -0.3604   -0.1183    1.3075 C   0  0  0  0  0  0  0  0  0  0  0  0
    0.4638    0.1435    2.3174 N   0  0  0  0  0  0  0  0  0  0  0  0
   -4.4598    2.8337    0.5318 N   0  0  0  0  0  4  0  0  0  0  0  0
   -4.5438    1.3823    0.5254 C   0  0  0  0  0  0  0  0  0  0  0  0
   -4.1573    0.8959   -0.8561 C   0  0  0  0  0  0  0  0  0  0  0  0
   -4.2600   -0.6348   -0.8160 C   0  0  0  0  0  0  0  0  0  0  0  0
   -3.2700   -1.0688    0.2733 C   0  0  0  0  0  0  0  0  0  0  0  0
   -1.9070   -0.5597   -0.2015 C   0  0  0  0  0  0  0  0  0  0  0  0
   -0.9425   -0.9437    0.7905 N   0  0  0  0  0  0  0  0  0  0  0  0
    0.4149   -0.5989    0.6072 C   0  0  0  0  0  0  0  0  0  0  0  0
    0.7397    0.0337   -0.4183 O   0  0  0  0  0  0  0  0  0  0  0  0
    1.4105   -0.9861    1.6148 C   0  0  0  0  0  0  0  0  0  0  0  0
    2.8008   -0.5536    1.2858 C   0  0  0  0  0  0  0  0  0  0  0  0
    3.1906   -1.1958   -0.0337 C   0  0  0  0  0  0  0  0  0  0  0  0
    4.6030   -0.7410   -0.3433 C   0  0  0  0  0  0  0  0  0  0  0  0
    4.5487    0.7826   -0.4349 C   0  0  0  0  0  0  0  0  0  0  0  0
    5.8323    1.3544   -0.7269 N   0  0  0  0  0  4  0  0  0  0  0  0
  2  1  1  6
  2  3  1  0
  3  4  1  0
  4  5  1  0
  5  6  2  0
  6  7  1  0
  7  8  2  0
  2  9  1  0
  9 10  1  0
 10 11  2  0
 11 12  1  0
 12 13  2  0
 13 14  1  0
 14 15  2  0
 15 16  1  0
 16 17  1  0
 17 18  2  0
 18 19  1  0
 19 20  2  0
 20 21  1  0
 20 22  1  0
 22 23  2  0
 23 24  1  0
 15 25  1  0
 25 26  2  0
 25 27  1  0
 27 28  1  0
 27 29  1  0
 29 30  2  0
 31 32  1  0
 32 33  1  0
 33 34  1  0
 34 35  1  0
 35 36  1  0
 36 37  1  0
 37 38  1  0
 38 39  2  0
 38 40  1  0
 40 41  1  0
 41 42  1  0
 42 43  1  0
 43 44  1  0
 44 45  1  0
  8  4  1  0
 30 10  1  0
 29 13  1  0
 23 17  1  0
M  CHG  2  31   1  45   1
M  END

