
     RDKit          3D

 41 43  0  0  0  0  0  0  0  0999 V2000
    4.3180    1.1645   -0.1491 C   0  0  0  0  0  0  0  0  0  0  0  0
    3.6016   -0.0076   -0.7672 C   0  0  0  0  0  0  0  0  0  0  0  0
    2.2574   -0.2128   -0.1798 C   0  0  0  0  0  0  0  0  0  0  0  0
    1.8919    0.5773    0.7208 O   0  0  0  0  0  0  0  0  0  0  0  0
    1.3928   -1.2415   -0.5875 N   0  0  0  0  0  0  0  0  0  0  0  0
    0.0820   -1.4750   -0.0440 C   0  0  0  0  0  0  0  0  0  0  0  0
   -0.8581   -0.3193   -0.2142 C   0  0  0  0  0  0  0  0  0  0  0  0
   -2.1784   -0.6820    0.3873 C   0  0  0  0  0  0  0  0  0  0  0  0
   -3.1707    0.4135    0.2604 C   0  0  0  0  0  0  0  0  0  0  0  0
   -4.4973    0.3063    0.7561 N   0  0  0  0  0  0  0  0  0  0  0  0
   -2.8392    1.4764   -0.3022 O   0  0  0  0  0  0  0  0  0  0  0  0
    4.3909   -2.5646    0.6121 C   0  0  0  0  0  0  0  0  0  0  0  0
    4.8192   -1.3300   -0.4262 C   0  0  2  0  0  0  0  0  0  0  0  0
    6.0771   -0.8468    0.5638 C   0  0  0  0  0  0  0  0  0  0  0  0
    6.6305    0.2648   -0.1560 N   0  0  0  0  0  0  0  0  0  0  0  0
    7.5868    0.2300   -1.0623 N   0  0  0  0  0  0  0  0  0  0  0  0
    7.8374    1.4683   -1.5151 C   0  0  0  0  0  0  0  0  0  0  0  0
    6.9884    2.2786   -0.8450 N   0  0  0  0  0  0  0  0  0  0  0  0
    6.2622    1.5273   -0.0226 N   0  0  0  0  0  0  0  0  0  0  0  0
    3.7975   -0.3140    0.2152 N   0  0  0  0  0  0  0  0  0  0  0  0
    2.4370   -0.6886    0.1689 C   0  0  0  0  0  0  0  0  0  0  0  0
    2.0056   -1.8365   -0.3821 N   0  0  0  0  0  0  0  0  0  0  0  0
    0.6951   -2.1380   -0.3958 C   0  0  0  0  0  0  0  0  0  0  0  0
   -0.2017   -1.2606    0.1598 C   0  0  0  0  0  0  0  0  0  0  0  0
   -1.5448   -1.5604    0.1506 C   0  0  0  0  0  0  0  0  0  0  0  0
   -2.4810   -0.7056    0.6986 C   0  0  0  0  0  0  0  0  0  0  0  0
   -3.8109   -1.0747    0.6519 O   0  0  0  0  0  0  0  0  0  0  0  0
   -4.7086   -0.2483   -0.0185 C   0  0  0  0  0  0  0  0  0  0  0  0
   -4.3047    0.9200   -0.6317 C   0  0  0  0  0  0  0  0  0  0  0  0
   -5.1916    1.7427   -1.2977 C   0  0  0  0  0  0  0  0  0  0  0  0
   -6.5323    1.4259   -1.3776 C   0  0  0  0  0  0  0  0  0  0  0  0
   -7.4076    2.2315   -2.0311 F   0  0  0  0  0  0  0  0  0  0  0  0
   -6.9293    0.2577   -0.7630 C   0  0  0  0  0  0  0  0  0  0  0  0
   -6.0478   -0.5684   -0.0961 C   0  0  0  0  0  0  0  0  0  0  0  0
   -6.4400   -1.7187    0.5087 F   0  0  0  0  0  0  0  0  0  0  0  0
   -2.0018    0.4612    1.2543 C   0  0  0  0  0  0  0  0  0  0  0  0
   -2.8338    1.2441    1.7534 O   0  0  0  0  0  0  0  0  0  0  0  0
   -0.6709    0.7474    1.2577 N   0  0  0  0  0  0  0  0  0  0  0  0
   -0.2063    1.9828    1.8507 C   0  0  0  0  0  0  0  0  0  0  0  0
    0.2393   -0.0826    0.7255 C   0  0  0  0  0  0  0  0  0  0  0  0
    1.5459    0.1553    0.7064 N   0  0  0  0  0  0  0  0  0  0  0  0
  1  2  1  0
  2  3  1  0
  3  4  2  0
  3  5  1  0
  5  6  1  0
  6  7  1  0
  7  8  1  0
  8  9  1  0
  9 10  1  0
  9 11  2  0
 13 12  1  1
 13 14  1  0
 14 15  1  0
 15 16  1  0
 16 17  2  0
 17 18  1  0
 18 19  2  0
 13 20  1  0
 20 21  1  0
 21 22  2  0
 22 23  1  0
 23 24  2  0
 24 25  1  0
 25 26  2  0
 26 27  1  0
 27 28  1  0
 28 29  2  0
 29 30  1  0
 30 31  2  0
 31 32  1  0
 31 33  1  0
 33 34  2  0
 34 35  1  0
 26 36  1  0
 36 37  2  0
 36 38  1  0
 38 39  1  0
 38 40  1  0
 40 41  2  0
 19 15  1  0
 41 21  1  0
 40 24  1  0
 34 28  1  0
M  END

