
     RDKit          3D

 42 45  0  0  0  0  0  0  0  0999 V2000
    4.3608   -1.3036   -2.3556 C   0  0  0  0  0  0  0  0  0  0  0  0
    4.5549   -0.6095   -0.6836 S   0  0  0  0  0  0  0  0  0  0  0  0
    3.0602    0.3306   -0.2500 C   0  0  0  0  0  0  0  0  0  0  0  0
    1.8561   -0.5677   -0.1197 C   0  0  0  0  0  0  0  0  0  0  0  0
    0.6785    0.3116    0.2441 C   0  0  0  0  0  0  0  0  0  0  0  0
   -0.5645   -0.4618    0.4026 C   0  0  0  0  0  0  0  0  0  0  0  0
   -0.5931   -1.6992    0.2614 O   0  0  0  0  0  0  0  0  0  0  0  0
   -1.7599    0.2161    0.7236 N   0  0  0  0  0  0  0  0  0  0  0  0
   -1.8759    1.6680    0.9266 C   0  0  0  0  0  0  0  0  0  0  0  0
   -2.7751    1.7190    2.1500 C   0  0  0  0  0  0  0  0  0  0  0  0
   -3.8489    0.7154    1.7135 C   0  0  0  0  0  0  0  0  0  0  0  0
   -3.0932   -0.3188    0.9154 C   0  0  0  0  0  0  0  0  0  0  0  0
    3.9567   -0.2006    0.7417 C   0  0  0  0  0  0  0  0  0  0  0  0
    4.3841    0.7496   -0.5680 C   0  0  2  0  0  0  0  0  0  0  0  0
    5.5979    1.5084    0.2935 C   0  0  0  0  0  0  0  0  0  0  0  0
    6.4721    0.4446    0.6737 N   0  0  0  0  0  0  0  0  0  0  0  0
    7.4754    0.0881   -0.1086 N   0  0  0  0  0  0  0  0  0  0  0  0
    8.1651   -0.9160    0.4239 C   0  0  0  0  0  0  0  0  0  0  0  0
    7.5417   -1.1868    1.6040 N   0  0  0  0  0  0  0  0  0  0  0  0
    6.5255   -0.3440    1.7172 N   0  0  0  0  0  0  0  0  0  0  0  0
    3.3310    1.8708   -0.1813 N   0  0  0  0  0  0  0  0  0  0  0  0
    1.9907    1.4101   -0.1545 C   0  0  0  0  0  0  0  0  0  0  0  0
    1.0711    2.3317    0.1690 N   0  0  0  0  0  0  0  0  0  0  0  0
   -0.2136    2.0149    0.2254 C   0  0  0  0  0  0  0  0  0  0  0  0
   -0.6092    0.7130   -0.0543 C   0  0  0  0  0  0  0  0  0  0  0  0
   -1.9582    0.3893    0.0071 C   0  0  0  0  0  0  0  0  0  0  0  0
   -2.2927   -0.9183   -0.2803 C   0  0  0  0  0  0  0  0  0  0  0  0
   -3.6235   -1.3381   -0.2445 O   0  0  0  0  0  0  0  0  0  0  0  0
   -4.6181   -0.4312    0.0834 C   0  0  0  0  0  0  0  0  0  0  0  0
   -4.3520    0.8778    0.3784 C   0  0  0  0  0  0  0  0  0  0  0  0
   -5.4029    1.7033    0.6921 C   0  0  0  0  0  0  0  0  0  0  0  0
   -6.6954    1.2373    0.7125 C   0  0  0  0  0  0  0  0  0  0  0  0
   -7.6650    2.1085    1.0289 F   0  0  0  0  0  0  0  0  0  0  0  0
   -6.9816   -0.0868    0.4158 C   0  0  0  0  0  0  0  0  0  0  0  0
   -5.9165   -0.9004    0.1036 C   0  0  0  0  0  0  0  0  0  0  0  0
   -6.1794   -2.2013   -0.1898 F   0  0  0  0  0  0  0  0  0  0  0  0
   -1.3208   -1.8359   -0.6084 C   0  0  0  0  0  0  0  0  0  0  0  0
   -1.6652   -3.0351   -0.8680 O   0  0  0  0  0  0  0  0  0  0  0  0
   -0.0214   -1.5079   -0.6635 N   0  0  0  0  0  0  0  0  0  0  0  0
    1.0196   -2.4529   -1.0055 C   0  0  0  0  0  0  0  0  0  0  0  0
    0.3384   -0.2325   -0.3866 C   0  0  0  0  0  0  0  0  0  0  0  0
    1.6463    0.1404   -0.4316 N   0  0  0  0  0  0  0  0  0  0  0  0
  1  2  1  0
  2  3  1  0
  3  4  1  0
  4  5  1  0
  5  6  1  0
  6  7  2  0
  6  8  1  0
  8  9  1  0
  9 10  1  0
 10 11  1  0
 11 12  1  0
 14 13  1  1
 14 15  1  0
 15 16  1  0
 16 17  1  0
 17 18  2  0
 18 19  1  0
 19 20  2  0
 14 21  1  0
 21 22  1  0
 22 23  2  0
 23 24  1  0
 24 25  2  0
 25 26  1  0
 26 27  2  0
 27 28  1  0
 28 29  1  0
 29 30  2  0
 30 31  1  0
 31 32  2  0
 32 33  1  0
 32 34  1  0
 34 35  2  0
 35 36  1  0
 27 37  1  0
 37 38  2  0
 37 39  1  0
 39 40  1  0
 39 41  1  0
 41 42  2  0
 12  8  1  0
 20 16  1  0
 42 22  1  0
 41 25  1  0
 35 29  1  0
M  END

