
     RDKit          3D

 43 46  0  0  0  0  0  0  0  0999 V2000
    4.6895    0.3396    0.2807 C   0  0  0  0  0  0  0  0  0  0  0  0
    3.5919   -0.6217    0.0967 C   0  0  0  0  0  0  0  0  0  0  0  0
    3.6655   -1.8906    0.8207 C   0  0  0  0  0  0  0  0  0  0  0  0
    2.2843   -0.1018   -0.2893 C   0  0  0  0  0  0  0  0  0  0  0  0
    1.6599    0.8771    0.6753 C   0  0  0  0  0  0  0  0  0  0  0  0
    0.3839    1.2557    0.0960 N   0  0  0  0  0  0  0  0  0  0  0  0
   -0.5796    0.2620   -0.1445 C   0  0  0  0  0  0  0  0  0  0  0  0
   -0.3651   -0.9068    0.1230 O   0  0  0  0  0  0  0  0  0  0  0  0
   -1.9653    0.5947   -0.7615 C   0  0  2  0  0  0  0  0  0  0  0  0
   -2.7198    0.9535    0.6458 C   0  0  0  0  0  0  0  0  0  0  0  0
   -4.1229    0.6376    0.1878 C   0  0  0  0  0  0  0  0  0  0  0  0
   -3.9695   -0.5606   -0.7088 C   0  0  0  0  0  0  0  0  0  0  0  0
   -2.5528   -0.8386   -0.7809 N   0  0  0  0  0  0  0  0  0  0  0  0
    6.1318    0.2989    1.5934 C   0  0  0  0  0  0  0  0  0  0  0  0
    4.4863    0.1545    1.7484 C   0  0  2  0  0  0  0  0  0  0  0  0
    4.4197   -1.2932    0.9589 C   0  0  0  0  0  0  0  0  0  0  0  0
    4.9281   -1.1209   -0.3472 N   0  0  0  0  0  0  0  0  0  0  0  0
    4.2540   -0.7864   -1.4568 N   0  0  0  0  0  0  0  0  0  0  0  0
    5.0959   -0.7236   -2.4968 C   0  0  0  0  0  0  0  0  0  0  0  0
    6.3101   -1.0226   -2.0299 N   0  0  0  0  0  0  0  0  0  0  0  0
    6.1815   -1.2546   -0.7483 N   0  0  0  0  0  0  0  0  0  0  0  0
    4.1810    1.0189    0.4673 N   0  0  0  0  0  0  0  0  0  0  0  0
    2.8028    1.1480    0.2294 C   0  0  0  0  0  0  0  0  0  0  0  0
    2.4220    1.8770   -0.8552 N   0  0  0  0  0  0  0  0  0  0  0  0
    1.1278    2.0379   -1.1370 C   0  0  0  0  0  0  0  0  0  0  0  0
    0.1731    1.4668   -0.3310 C   0  0  0  0  0  0  0  0  0  0  0  0
   -1.1614    1.6346   -0.6245 C   0  0  0  0  0  0  0  0  0  0  0  0
   -2.0707    1.0215    0.2447 C   0  0  0  0  0  0  0  0  0  0  0  0
   -3.4037    1.1910   -0.0510 O   0  0  0  0  0  0  0  0  0  0  0  0
   -4.2631    0.1311   -0.3166 C   0  0  0  0  0  0  0  0  0  0  0  0
   -3.8378   -1.1846   -0.3031 C   0  0  0  0  0  0  0  0  0  0  0  0
   -4.7382   -2.1962   -0.5750 C   0  0  0  0  0  0  0  0  0  0  0  0
   -6.0539   -1.9090   -0.8592 C   0  0  0  0  0  0  0  0  0  0  0  0
   -6.9597   -2.8836   -1.1300 F   0  0  0  0  0  0  0  0  0  0  0  0
   -6.4943   -0.6094   -0.8773 C   0  0  0  0  0  0  0  0  0  0  0  0
   -5.5793    0.3914   -0.6027 C   0  0  0  0  0  0  0  0  0  0  0  0
   -5.9849    1.6995   -0.6122 F   0  0  0  0  0  0  0  0  0  0  0  0
   -1.6386    0.2938    1.3294 C   0  0  0  0  0  0  0  0  0  0  0  0
   -2.5099   -0.2306    2.0695 O   0  0  0  0  0  0  0  0  0  0  0  0
   -0.3336    0.1560    1.5776 N   0  0  0  0  0  0  0  0  0  0  0  0
    0.0820   -0.6228    2.7366 C   0  0  0  0  0  0  0  0  0  0  0  0
    0.5599    0.7294    0.7662 C   0  0  0  0  0  0  0  0  0  0  0  0
    1.8730    0.5872    1.0210 N   0  0  0  0  0  0  0  0  0  0  0  0
  1  2  1  0
  2  3  1  0
  2  4  1  0
  4  5  1  0
  5  6  1  0
  6  7  1  0
  7  8  2  0
  9  7  1  1
  9 10  1  0
 10 11  1  0
 11 12  1  0
 12 13  1  0
 15 14  1  6
 15 16  1  0
 16 17  1  0
 17 18  1  0
 18 19  2  0
 19 20  1  0
 20 21  2  0
 15 22  1  0
 22 23  1  0
 23 24  2  0
 24 25  1  0
 25 26  2  0
 26 27  1  0
 27 28  2  0
 28 29  1  0
 29 30  1  0
 30 31  2  0
 31 32  1  0
 32 33  2  0
 33 34  1  0
 33 35  1  0
 35 36  2  0
 36 37  1  0
 28 38  1  0
 38 39  2  0
 38 40  1  0
 40 41  1  0
 40 42  1  0
 42 43  2  0
 13  9  1  0
 21 17  1  0
 43 23  1  0
 42 26  1  0
 36 30  1  0
M  END

