
     RDKit          3D

 40 42  0  0  0  0  0  0  0  0999 V2000
    3.8771    0.0930   -0.9250 C   0  0  0  0  0  0  0  0  0  0  0  0
    2.4683   -0.4426   -1.1410 C   0  0  0  0  0  0  0  0  0  0  0  0
    1.6708   -0.0456    0.0585 C   0  0  0  0  0  0  0  0  0  0  0  0
    2.1166    0.6310    1.0003 O   0  0  0  0  0  0  0  0  0  0  0  0
    0.3233   -0.5022    0.0735 N   0  0  0  0  0  0  0  0  0  0  0  0
   -0.4841   -0.1401    1.2350 C   0  0  0  0  0  0  0  0  0  0  0  0
   -1.8852   -0.6928    1.1082 C   0  0  0  0  0  0  0  0  0  0  0  0
   -2.5299   -0.1089   -0.1076 C   0  0  0  0  0  0  0  0  0  0  0  0
   -2.0569   -0.4308   -1.3680 O   0  0  0  0  0  1  0  0  0  0  0  0
   -3.4999    0.6743    0.0661 O   0  0  0  0  0  0  0  0  0  0  0  0
    6.0827   -2.7372    0.4802 C   0  0  0  0  0  0  0  0  0  0  0  0
    5.1779   -1.5256   -0.2844 C   0  0  2  0  0  0  0  0  0  0  0  0
    5.5580   -0.4721    0.9343 C   0  0  0  0  0  0  0  0  0  0  0  0
    4.9120    0.7749    0.6034 N   0  0  0  0  0  0  0  0  0  0  0  0
    3.7041    1.1945    0.9694 N   0  0  0  0  0  0  0  0  0  0  0  0
    3.4799    2.4078    0.4525 C   0  0  0  0  0  0  0  0  0  0  0  0
    4.5807    2.7287   -0.2433 N   0  0  0  0  0  0  0  0  0  0  0  0
    5.4422    1.7378   -0.1481 N   0  0  0  0  0  0  0  0  0  0  0  0
    3.8462   -2.0188    0.4049 N   0  0  0  0  0  0  0  0  0  0  0  0
    2.6738   -1.4923   -0.2131 C   0  0  0  0  0  0  0  0  0  0  0  0
    2.6654   -0.6838   -1.2722 N   0  0  0  0  0  0  0  0  0  0  0  0
    1.5183   -0.2262   -1.8014 C   0  0  0  0  0  0  0  0  0  0  0  0
    0.2963   -0.5761   -1.2675 C   0  0  0  0  0  0  0  0  0  0  0  0
   -0.9015   -0.1246   -1.7855 C   0  0  0  0  0  0  0  0  0  0  0  0
   -2.0808   -0.5228   -1.1910 C   0  0  0  0  0  0  0  0  0  0  0  0
   -3.3159   -0.1225   -1.6396 O   0  0  0  0  0  0  0  0  0  0  0  0
   -4.1288    0.5823   -0.7687 C   0  0  0  0  0  0  0  0  0  0  0  0
   -5.3562    0.0515   -0.4429 C   0  0  0  0  0  0  0  0  0  0  0  0
   -6.1808    0.7223    0.4132 C   0  0  0  0  0  0  0  0  0  0  0  0
   -5.7683    1.9308    0.9426 C   0  0  0  0  0  0  0  0  0  0  0  0
   -6.5252    2.6602    1.7990 F   0  0  0  0  0  0  0  0  0  0  0  0
   -4.5274    2.4617    0.6098 C   0  0  0  0  0  0  0  0  0  0  0  0
   -3.6980    1.7862   -0.2518 C   0  0  0  0  0  0  0  0  0  0  0  0
   -2.5031    2.2863   -0.5792 F   0  0  0  0  0  0  0  0  0  0  0  0
   -2.0222   -1.3604   -0.0967 C   0  0  0  0  0  0  0  0  0  0  0  0
   -3.0804   -1.7476    0.4760 O   0  0  0  0  0  0  0  0  0  0  0  0
   -0.8500   -1.7905    0.3948 N   0  0  0  0  0  0  0  0  0  0  0  0
   -0.8148   -2.6703    1.5459 C   0  0  0  0  0  0  0  0  0  0  0  0
    0.3081   -1.4128   -0.1715 C   0  0  0  0  0  0  0  0  0  0  0  0
    1.5078   -1.8416    0.3167 N   0  0  0  0  0  0  0  0  0  0  0  0
  1  2  1  0
  2  3  1  0
  3  4  2  0
  3  5  1  0
  5  6  1  0
  6  7  1  0
  7  8  1  0
  8  9  1  0
  8 10  2  0
 12 11  1  1
 12 13  1  0
 13 14  1  0
 14 15  1  0
 15 16  2  0
 16 17  1  0
 17 18  2  0
 12 19  1  0
 19 20  1  0
 20 21  2  0
 21 22  1  0
 22 23  2  0
 23 24  1  0
 24 25  2  0
 25 26  1  0
 26 27  1  0
 27 28  2  0
 28 29  1  0
 29 30  2  0
 30 31  1  0
 30 32  1  0
 32 33  2  0
 33 34  1  0
 25 35  1  0
 35 36  2  0
 35 37  1  0
 37 38  1  0
 37 39  1  0
 39 40  2  0
 18 14  1  0
 40 20  1  0
 39 23  1  0
 33 27  1  0
M  RAD  1   9   2
M  END

