
     RDKit          3D

 44 46  0  0  0  0  0  0  0  0999 V2000
    4.0623    3.2398   -0.4844 C   0  0  0  0  0  0  0  0  0  0  0  0
    4.6646    1.5599   -0.1769 S   0  0  0  0  0  0  0  0  0  0  0  0
    4.0820    0.3898   -1.4280 C   0  0  0  0  0  0  0  0  0  0  0  0
    2.5715    0.2276   -1.3368 C   0  0  0  0  0  0  0  0  0  0  0  0
    2.1707   -0.2913    0.0253 C   0  0  0  0  0  0  0  0  0  0  0  0
    0.6997   -0.4341    0.0726 C   0  0  0  0  0  0  0  0  0  0  0  0
   -0.0099   -0.1383   -0.9296 O   0  0  0  0  0  0  0  0  0  0  0  0
    0.0537   -0.9100    1.2550 N   0  0  0  0  0  0  0  0  0  0  0  0
   -1.4018   -1.0336    1.2530 C   0  0  0  0  0  0  0  0  0  0  0  0
   -1.7806   -2.0183    0.1404 C   0  0  0  0  0  0  0  0  0  0  0  0
   -3.2930   -2.1397    0.1457 C   0  0  0  0  0  0  0  0  0  0  0  0
   -3.9609   -0.8081   -0.1086 C   0  0  0  0  0  0  0  0  0  0  0  0
   -3.5775    0.2082    0.9607 C   0  0  0  0  0  0  0  0  0  0  0  0
   -4.2807    1.4523    0.6117 N   0  0  0  0  0  4  0  0  0  0  0  0
    4.4416    0.9065    0.5163 C   0  0  0  0  0  0  0  0  0  0  0  0
    4.9056   -0.6765    0.7468 C   0  0  2  0  0  0  0  0  0  0  0  0
    5.9498   -0.6393   -0.5442 C   0  0  0  0  0  0  0  0  0  0  0  0
    6.8779    0.4304   -0.1529 N   0  0  0  0  0  0  0  0  0  0  0  0
    6.6767    1.6790   -0.4653 N   0  0  0  0  0  0  0  0  0  0  0  0
    7.7023    2.4185    0.0351 C   0  0  0  0  0  0  0  0  0  0  0  0
    8.5218    1.5657    0.6568 N   0  0  0  0  0  0  0  0  0  0  0  0
    7.9882    0.3597    0.5227 N   0  0  0  0  0  0  0  0  0  0  0  0
    3.6808   -1.2392   -0.0826 N   0  0  0  0  0  0  0  0  0  0  0  0
    2.4001   -0.9155    0.3981 C   0  0  0  0  0  0  0  0  0  0  0  0
    2.1222   -0.1904    1.4704 N   0  0  0  0  0  0  0  0  0  0  0  0
    0.8427    0.0511    1.8299 C   0  0  0  0  0  0  0  0  0  0  0  0
   -0.2151   -0.4432    1.1012 C   0  0  0  0  0  0  0  0  0  0  0  0
   -1.5424   -0.2135    1.4431 C   0  0  0  0  0  0  0  0  0  0  0  0
   -2.5676   -0.7319    0.6787 C   0  0  0  0  0  0  0  0  0  0  0  0
   -3.9006   -0.5364    0.9702 O   0  0  0  0  0  0  0  0  0  0  0  0
   -4.7967    0.0904    0.1072 C   0  0  0  0  0  0  0  0  0  0  0  0
   -4.4434    0.5739   -1.1144 C   0  0  0  0  0  0  0  0  0  0  0  0
   -5.3747    1.1765   -1.9067 C   0  0  0  0  0  0  0  0  0  0  0  0
   -6.6799    1.3098   -1.4969 C   0  0  0  0  0  0  0  0  0  0  0  0
   -7.6447    1.8973   -2.2393 F   0  0  0  0  0  0  0  0  0  0  0  0
   -7.0285    0.8133   -0.2501 C   0  0  0  0  0  0  0  0  0  0  0  0
   -6.0888    0.2029    0.5548 C   0  0  0  0  0  0  0  0  0  0  0  0
   -6.4543   -0.2859    1.7943 F   0  0  0  0  0  0  0  0  0  0  0  0
   -2.2095   -1.4729   -0.4172 C   0  0  0  0  0  0  0  0  0  0  0  0
   -3.1098   -1.9586   -1.1335 O   0  0  0  0  0  0  0  0  0  0  0  0
   -0.9256   -1.7018   -0.7580 N   0  0  0  0  0  0  0  0  0  0  0  0
   -0.5884   -2.4915   -1.9258 C   0  0  0  0  0  0  0  0  0  0  0  0
    0.0820   -1.1982   -0.0154 C   0  0  0  0  0  0  0  0  0  0  0  0
    1.3783   -1.4051   -0.3236 N   0  0  0  0  0  0  0  0  0  0  0  0
  1  2  1  0
  2  3  1  0
  3  4  1  0
  4  5  1  0
  5  6  1  0
  6  7  2  0
  6  8  1  0
  8  9  1  0
  9 10  1  0
 10 11  1  0
 11 12  1  0
 12 13  1  0
 13 14  1  0
 16 15  1  6
 16 17  1  0
 17 18  1  0
 18 19  1  0
 19 20  2  0
 20 21  1  0
 21 22  2  0
 16 23  1  0
 23 24  1  0
 24 25  2  0
 25 26  1  0
 26 27  2  0
 27 28  1  0
 28 29  2  0
 29 30  1  0
 30 31  1  0
 31 32  2  0
 32 33  1  0
 33 34  2  0
 34 35  1  0
 34 36  1  0
 36 37  2  0
 37 38  1  0
 29 39  1  0
 39 40  2  0
 39 41  1  0
 41 42  1  0
 41 43  1  0
 43 44  2  0
 22 18  1  0
 44 24  1  0
 43 27  1  0
 37 31  1  0
M  CHG  1  14   1
M  END

