
     RDKit          3D

 44 46  0  0  0  0  0  0  0  0999 V2000
    3.8078   -1.6723   -1.1042 C   0  0  0  0  0  0  0  0  0  0  0  0
    4.3879   -0.1298   -0.8704 C   0  0  2  0  0  0  0  0  0  0  0  0
    5.9136   -0.6769   -0.4915 C   0  0  0  0  0  0  0  0  0  0  0  0
    6.6121    0.5635   -0.2416 N   0  0  0  0  0  0  0  0  0  0  0  0
    7.2560    1.2763   -1.1284 N   0  0  0  0  0  0  0  0  0  0  0  0
    7.7569    2.3412   -0.4948 C   0  0  0  0  0  0  0  0  0  0  0  0
    7.4047    2.2625    0.7969 N   0  0  0  0  0  0  0  0  0  0  0  0
    6.7021    1.1562    0.9125 N   0  0  0  0  0  0  0  0  0  0  0  0
    3.9116   -0.0707    0.6384 N   0  0  0  0  0  0  0  0  0  0  0  0
    2.5361   -0.2210    0.8657 C   0  0  0  0  0  0  0  0  0  0  0  0
    2.0435   -0.1850    2.1025 N   0  0  0  0  0  0  0  0  0  0  0  0
    0.7216   -0.3268    2.3550 C   0  0  0  0  0  0  0  0  0  0  0  0
   -0.1572   -0.5150    1.3120 C   0  0  0  0  0  0  0  0  0  0  0  0
   -1.5162   -0.6686    1.4696 C   0  0  0  0  0  0  0  0  0  0  0  0
   -2.3804   -0.8567    0.4063 C   0  0  0  0  0  0  0  0  0  0  0  0
   -3.6994   -0.9961    0.6829 O   0  0  0  0  0  0  0  0  0  0  0  0
   -4.7448   -0.2248    0.2671 C   0  0  0  0  0  0  0  0  0  0  0  0
   -4.4750    0.8558   -0.5474 C   0  0  0  0  0  0  0  0  0  0  0  0
   -5.4606    1.7016   -1.0248 C   0  0  0  0  0  0  0  0  0  0  0  0
   -6.7718    1.4816   -0.6912 C   0  0  0  0  0  0  0  0  0  0  0  0
   -7.7084    2.3319   -1.1785 F   0  0  0  0  0  0  0  0  0  0  0  0
   -7.0624    0.4113    0.1185 C   0  0  0  0  0  0  0  0  0  0  0  0
   -6.0624   -0.4421    0.5996 C   0  0  0  0  0  0  0  0  0  0  0  0
   -6.3396   -1.4925    1.3932 F   0  0  0  0  0  0  0  0  0  0  0  0
   -1.8037   -0.8836   -0.8473 C   0  0  0  0  0  0  0  0  0  0  0  0
   -2.5626   -1.0531   -1.8365 O   0  0  0  0  0  0  0  0  0  0  0  0
   -0.4593   -0.7323   -1.0109 N   0  0  0  0  0  0  0  0  0  0  0  0
    0.0936   -0.7692   -2.3550 C   0  0  0  0  0  0  0  0  0  0  0  0
    0.3675   -0.5495    0.0441 C   0  0  0  0  0  0  0  0  0  0  0  0
    1.6890   -0.4026   -0.1420 N   0  0  0  0  0  0  0  0  0  0  0  0
    5.3642   -0.5705   -0.9310 O   0  0  0  0  0  1  0  0  0  0  0  0
    4.4340    0.1865   -0.2372 C   0  0  0  0  0  0  0  0  0  0  0  0
    4.7878    1.3143    0.1854 O   0  0  0  0  0  0  0  0  0  0  0  0
    3.0446   -0.2539    0.0373 C   0  0  0  0  0  0  0  0  0  0  0  0
    2.2872    0.7835    0.8038 C   0  0  0  0  0  0  0  0  0  0  0  0
    0.8996    0.3063    1.0609 C   0  0  0  0  0  0  0  0  0  0  0  0
    0.1803    0.0420   -0.1624 N   0  0  0  0  0  0  0  0  0  0  0  0
   -1.1836   -0.4282   -0.0217 C   0  0  0  0  0  0  0  0  0  0  0  0
   -1.5991   -0.5572    1.1420 O   0  0  0  0  0  0  0  0  0  0  0  0
   -2.0018   -0.7263   -1.2034 C   0  0  0  0  0  0  0  0  0  0  0  0
   -3.3816   -1.1108   -0.8326 C   0  0  0  0  0  0  0  0  0  0  0  0
   -4.0626   -0.0100   -0.1254 C   0  0  0  0  0  0  0  0  0  0  0  0
   -4.6853    1.0335   -0.8419 O   0  0  0  0  0  1  0  0  0  0  0  0
   -4.0836   -0.0092    1.1262 O   0  0  0  0  0  0  0  0  0  0  0  0
  2  1  1  6
  2  3  1  0
  3  4  1  0
  4  5  1  0
  5  6  2  0
  6  7  1  0
  7  8  2  0
  2  9  1  0
  9 10  1  0
 10 11  2  0
 11 12  1  0
 12 13  2  0
 13 14  1  0
 14 15  2  0
 15 16  1  0
 16 17  1  0
 17 18  2  0
 18 19  1  0
 19 20  2  0
 20 21  1  0
 20 22  1  0
 22 23  2  0
 23 24  1  0
 15 25  1  0
 25 26  2  0
 25 27  1  0
 27 28  1  0
 27 29  1  0
 29 30  2  0
 31 32  1  0
 32 33  2  0
 32 34  1  0
 34 35  1  0
 35 36  1  0
 36 37  1  0
 37 38  1  0
 38 39  2  0
 38 40  1  0
 40 41  1  0
 41 42  1  0
 42 43  1  0
 42 44  2  0
  8  4  1  0
 30 10  1  0
 29 13  1  0
 23 17  1  0
M  RAD  2  31   2  43   2
M  END

