
     RDKit          3D

 43 45  0  0  0  0  0  0  0  0999 V2000
   -4.7575    0.2930    0.6873 C   0  0  0  0  0  0  0  0  0  0  0  0
   -4.1514    0.8432   -0.5792 C   0  0  0  0  0  0  0  0  0  0  0  0
   -2.6160    1.2892   -0.1515 C   0  0  2  0  0  0  0  0  0  0  0  0
   -2.2700    1.8191   -1.6936 C   0  0  0  0  0  0  0  0  0  0  0  0
   -2.0040   -0.2031   -0.4466 C   0  0  0  0  0  0  0  0  0  0  0  0
   -0.5853   -0.0508   -0.1229 C   0  0  0  0  0  0  0  0  0  0  0  0
   -0.1196    1.0309    0.2762 O   0  0  0  0  0  0  0  0  0  0  0  0
    0.3499   -1.1384   -0.2465 N   0  0  0  0  0  0  0  0  0  0  0  0
    1.7317   -0.8972    0.0947 C   0  0  0  0  0  0  0  0  0  0  0  0
    2.6007   -2.1187   -0.0841 C   0  0  0  0  0  0  0  0  0  0  0  0
    4.0152   -1.6768    0.3213 C   0  0  0  0  0  0  0  0  0  0  0  0
    4.4342   -0.3149   -0.8178 S   0  0  0  0  0  0  0  0  0  0  0  0
    3.3721    1.1245   -0.5366 C   0  0  0  0  0  0  0  0  0  0  0  0
    4.4154   -1.7107    0.4377 C   0  0  0  0  0  0  0  0  0  0  0  0
    5.0032   -0.5873    1.5005 C   0  0  2  0  0  0  0  0  0  0  0  0
    3.6100   -0.5402    2.3844 C   0  0  0  0  0  0  0  0  0  0  0  0
    3.4594   -1.8946    2.8746 N   0  0  0  0  0  0  0  0  0  0  0  0
    3.8784   -2.4586    3.9831 N   0  0  0  0  0  0  0  0  0  0  0  0
    3.4844   -3.7624    3.9499 C   0  0  0  0  0  0  0  0  0  0  0  0
    2.8264   -3.9742    2.8128 N   0  0  0  0  0  0  0  0  0  0  0  0
    2.8270   -2.8121    2.1746 N   0  0  0  0  0  0  0  0  0  0  0  0
    4.6914    0.6221    0.6114 N   0  0  0  0  0  0  0  0  0  0  0  0
    3.3965    0.9648    0.2326 C   0  0  0  0  0  0  0  0  0  0  0  0
    3.2224    2.0585   -0.5704 N   0  0  0  0  0  0  0  0  0  0  0  0
    1.9996    2.4148   -0.9399 C   0  0  0  0  0  0  0  0  0  0  0  0
    0.8640    1.7537   -0.5692 C   0  0  0  0  0  0  0  0  0  0  0  0
   -0.4015    2.1352   -0.9588 C   0  0  0  0  0  0  0  0  0  0  0  0
   -1.4918    1.4071   -0.5335 C   0  0  0  0  0  0  0  0  0  0  0  0
   -2.7412    1.8292   -0.9510 O   0  0  0  0  0  0  0  0  0  0  0  0
   -3.6099    1.0596   -1.6973 C   0  0  0  0  0  0  0  0  0  0  0  0
   -3.3507   -0.2130   -2.1189 C   0  0  0  0  0  0  0  0  0  0  0  0
   -4.2852   -0.8961   -2.8596 C   0  0  0  0  0  0  0  0  0  0  0  0
   -5.5043   -0.3667   -3.2166 C   0  0  0  0  0  0  0  0  0  0  0  0
   -6.4255   -1.0410   -3.9473 F   0  0  0  0  0  0  0  0  0  0  0  0
   -5.7674    0.9244   -2.7889 C   0  0  0  0  0  0  0  0  0  0  0  0
   -4.8253    1.6176   -2.0403 C   0  0  0  0  0  0  0  0  0  0  0  0
   -5.1178    2.8882   -1.6354 F   0  0  0  0  0  0  0  0  0  0  0  0
   -1.2838    0.3211    0.2675 C   0  0  0  0  0  0  0  0  0  0  0  0
   -2.3071   -0.3148    0.6326 O   0  0  0  0  0  0  0  0  0  0  0  0
   -0.0415   -0.0210    0.6265 N   0  0  0  0  0  0  0  0  0  0  0  0
    0.1138   -1.1845    1.4841 C   0  0  0  0  0  0  0  0  0  0  0  0
    1.0586    0.6456    0.2461 C   0  0  0  0  0  0  0  0  0  0  0  0
    2.3026    0.3013    0.6087 N   0  0  0  0  0  0  0  0  0  0  0  0
  1  2  1  0
  2  3  1  0
  3  4  1  6
  3  5  1  0
  5  6  1  0
  6  7  2  0
  6  8  1  0
  8  9  1  0
  9 10  1  0
 10 11  1  0
 11 12  1  0
 12 13  1  0
 15 14  1  6
 15 16  1  0
 16 17  1  0
 17 18  1  0
 18 19  2  0
 19 20  1  0
 20 21  2  0
 15 22  1  0
 22 23  1  0
 23 24  2  0
 24 25  1  0
 25 26  2  0
 26 27  1  0
 27 28  2  0
 28 29  1  0
 29 30  1  0
 30 31  2  0
 31 32  1  0
 32 33  2  0
 33 34  1  0
 33 35  1  0
 35 36  2  0
 36 37  1  0
 28 38  1  0
 38 39  2  0
 38 40  1  0
 40 41  1  0
 40 42  1  0
 42 43  2  0
 21 17  1  0
 43 23  1  0
 42 26  1  0
 36 30  1  0
M  END

