
     RDKit          3D

 47 50  0  0  0  0  0  0  0  0999 V2000
   -3.5196    1.8149   -1.5758 C   0  0  0  0  0  0  0  0  0  0  0  0
   -4.4856    0.5117   -1.1740 C   0  0  2  0  0  0  0  0  0  0  0  0
   -5.7246    1.5255   -0.6959 C   0  0  0  0  0  0  0  0  0  0  0  0
   -6.7266    0.5736   -0.2847 N   0  0  0  0  0  0  0  0  0  0  0  0
   -6.8670    0.0764    0.9367 N   0  0  0  0  0  0  0  0  0  0  0  0
   -7.9141   -0.7921    0.9622 C   0  0  0  0  0  0  0  0  0  0  0  0
   -8.4059   -0.8080   -0.2804 N   0  0  0  0  0  0  0  0  0  0  0  0
   -7.6847    0.0169   -1.0229 N   0  0  0  0  0  0  0  0  0  0  0  0
   -3.9476    0.3791    0.2974 N   0  0  0  0  0  0  0  0  0  0  0  0
   -2.5899    0.1337    0.5028 C   0  0  0  0  0  0  0  0  0  0  0  0
   -2.1818    0.0290    1.7808 N   0  0  0  0  0  0  0  0  0  0  0  0
   -0.8846   -0.2074    2.0529 C   0  0  0  0  0  0  0  0  0  0  0  0
    0.0609   -0.3492    1.0559 C   0  0  0  0  0  0  0  0  0  0  0  0
    1.3734   -0.5867    1.2883 C   0  0  0  0  0  0  0  0  0  0  0  0
    2.3213   -0.7264    0.2003 C   0  0  0  0  0  0  0  0  0  0  0  0
    3.5820   -0.9600    0.5364 O   0  0  0  0  0  0  0  0  0  0  0  0
    4.8052   -0.4404    0.4981 C   0  0  0  0  0  0  0  0  0  0  0  0
    5.3818   -0.1416    1.7829 C   0  0  0  0  0  0  0  0  0  0  0  0
    6.6123    0.3854    1.8868 C   0  0  0  0  0  0  0  0  0  0  0  0
    7.3951    0.6727    0.8098 C   0  0  0  0  0  0  0  0  0  0  0  0
    8.6374    1.2061    0.9138 F   0  0  0  0  0  0  0  0  0  0  0  0
    6.9054    0.4114   -0.4414 C   0  0  0  0  0  0  0  0  0  0  0  0
    5.6202   -0.1395   -0.5464 C   0  0  0  0  0  0  0  0  0  0  0  0
    5.2695   -0.3805   -1.8388 F   0  0  0  0  0  0  0  0  0  0  0  0
    1.8380   -0.6103   -1.0612 C   0  0  0  0  0  0  0  0  0  0  0  0
    2.5948   -0.7238   -2.0539 O   0  0  0  0  0  0  0  0  0  0  0  0
    0.5062   -0.3692   -1.2721 N   0  0  0  0  0  0  0  0  0  0  0  0
    0.0709   -0.2578   -2.6404 C   0  0  0  0  0  0  0  0  0  0  0  0
   -0.3662   -0.2403   -0.2540 C   0  0  0  0  0  0  0  0  0  0  0  0
   -1.6763   -0.0031   -0.4690 N   0  0  0  0  0  0  0  0  0  0  0  0
    4.5870    1.1576   -0.7227 O   0  0  0  0  0  1  0  0  0  0  0  0
    4.9573    0.0859    0.0684 C   0  0  0  0  0  0  0  0  0  0  0  0
    5.4388    0.2041    1.2216 O   0  0  0  0  0  0  0  0  0  0  0  0
    4.7620   -1.2964   -0.5064 C   0  0  0  0  0  0  0  0  0  0  0  0
    3.5059   -1.8959    0.1017 C   0  0  0  0  0  0  0  0  0  0  0  0
    2.3779   -1.0496   -0.2167 N   0  0  0  0  0  0  0  0  0  0  0  0
    1.0795   -1.3853    0.2335 C   0  0  0  0  0  0  0  0  0  0  0  0
    0.8925   -2.4231    0.9137 O   0  0  0  0  0  0  0  0  0  0  0  0
   -0.0655   -0.4804   -0.1151 C   0  0  0  0  0  0  0  0  0  0  0  0
   -1.3744   -0.9979    0.4421 C   0  0  0  0  0  0  0  0  0  0  0  0
   -2.4464   -0.0416    0.0568 C   0  0  0  0  0  0  0  0  0  0  0  0
   -2.7632    1.0112    0.8898 C   0  0  0  0  0  0  0  0  0  0  0  0
   -3.7442    1.9300    0.5835 C   0  0  0  0  0  0  0  0  0  0  0  0
   -4.4599    1.8205   -0.6015 C   0  0  0  0  0  0  0  0  0  0  0  0
   -5.4568    2.7523   -0.9153 O   0  0  0  0  0  0  0  0  0  0  0  0
   -4.1381    0.7663   -1.4291 C   0  0  0  0  0  0  0  0  0  0  0  0
   -3.1522   -0.1574   -1.1209 C   0  0  0  0  0  0  0  0  0  0  0  0
  2  1  1  6
  2  3  1  0
  3  4  1  0
  4  5  1  0
  5  6  2  0
  6  7  1  0
  7  8  2  0
  2  9  1  0
  9 10  1  0
 10 11  2  0
 11 12  1  0
 12 13  2  0
 13 14  1  0
 14 15  2  0
 15 16  1  0
 16 17  1  0
 17 18  2  0
 18 19  1  0
 19 20  2  0
 20 21  1  0
 20 22  1  0
 22 23  2  0
 23 24  1  0
 15 25  1  0
 25 26  2  0
 25 27  1  0
 27 28  1  0
 27 29  1  0
 29 30  2  0
 31 32  1  0
 32 33  2  0
 32 34  1  0
 34 35  1  0
 35 36  1  0
 36 37  1  0
 37 38  2  0
 37 39  1  0
 39 40  1  0
 40 41  1  0
 41 42  2  0
 42 43  1  0
 43 44  2  0
 44 45  1  0
 44 46  1  0
 46 47  2  0
  8  4  1  0
 30 10  1  0
 47 41  1  0
 29 13  1  0
 23 17  1  0
M  RAD  1  31   2
M  END

