
     RDKit          3D

 40 42  0  0  0  0  0  0  0  0999 V2000
    3.8314   -0.3868   -1.2170 C   0  0  0  0  0  0  0  0  0  0  0  0
    3.1206   -0.1342    0.0952 C   0  0  0  0  0  0  0  0  0  0  0  0
    1.7169    0.1994   -0.2036 C   0  0  0  0  0  0  0  0  0  0  0  0
    1.2759    0.2423   -1.3799 O   0  0  0  0  0  0  0  0  0  0  0  0
    0.8534    0.4778    0.8941 N   0  0  0  0  0  0  0  0  0  0  0  0
   -0.5277    0.8060    0.6017 C   0  0  0  0  0  0  0  0  0  0  0  0
   -1.1224   -0.3853   -0.1283 C   0  0  0  0  0  0  0  0  0  0  0  0
   -2.5719   -0.0236   -0.4273 C   0  0  0  0  0  0  0  0  0  0  0  0
   -3.3377    0.2462    0.8428 C   0  0  0  0  0  0  0  0  0  0  0  0
   -3.2384   -1.0417   -1.3126 C   0  0  0  0  0  0  0  0  0  0  0  0
    4.0643   -0.0198   -0.3348 C   0  0  0  0  0  0  0  0  0  0  0  0
    4.1264    1.3987    0.5686 C   0  0  2  0  0  0  0  0  0  0  0  0
    5.6505    1.0302    1.1300 C   0  0  0  0  0  0  0  0  0  0  0  0
    6.4583    0.9362   -0.0477 N   0  0  0  0  0  0  0  0  0  0  0  0
    7.1005    1.9746   -0.5667 N   0  0  0  0  0  0  0  0  0  0  0  0
    7.7598    1.5482   -1.6590 C   0  0  0  0  0  0  0  0  0  0  0  0
    7.4878    0.2347   -1.7668 N   0  0  0  0  0  0  0  0  0  0  0  0
    6.7034   -0.1291   -0.7938 N   0  0  0  0  0  0  0  0  0  0  0  0
    3.4320    0.7613    1.8424 N   0  0  0  0  0  0  0  0  0  0  0  0
    2.1583    0.2420    1.7145 C   0  0  0  0  0  0  0  0  0  0  0  0
    1.5968   -0.2916    2.8133 N   0  0  0  0  0  0  0  0  0  0  0  0
    0.3683   -0.8277    2.8235 C   0  0  0  0  0  0  0  0  0  0  0  0
   -0.3609   -0.8391    1.6668 C   0  0  0  0  0  0  0  0  0  0  0  0
   -1.6250   -1.3755    1.6201 C   0  0  0  0  0  0  0  0  0  0  0  0
   -2.3294   -1.3662    0.4257 C   0  0  0  0  0  0  0  0  0  0  0  0
   -3.6044   -1.8991    0.3475 O   0  0  0  0  0  0  0  0  0  0  0  0
   -4.6535   -1.0757   -0.0319 C   0  0  0  0  0  0  0  0  0  0  0  0
   -5.4138   -1.3358   -1.1508 C   0  0  0  0  0  0  0  0  0  0  0  0
   -6.4493   -0.4967   -1.4995 C   0  0  0  0  0  0  0  0  0  0  0  0
   -6.7402    0.6153   -0.7344 C   0  0  0  0  0  0  0  0  0  0  0  0
   -7.7666    1.4031   -1.1232 F   0  0  0  0  0  0  0  0  0  0  0  0
   -5.9857    0.8722    0.3747 C   0  0  0  0  0  0  0  0  0  0  0  0
   -4.9515    0.0278    0.7167 C   0  0  0  0  0  0  0  0  0  0  0  0
   -4.2020    0.2934    1.8288 F   0  0  0  0  0  0  0  0  0  0  0  0
   -1.7372   -0.8186   -0.6756 C   0  0  0  0  0  0  0  0  0  0  0  0
   -2.3493   -0.7921   -1.7834 O   0  0  0  0  0  0  0  0  0  0  0  0
   -0.5028   -0.2940   -0.6328 N   0  0  0  0  0  0  0  0  0  0  0  0
    0.1363    0.2950   -1.8141 C   0  0  0  0  0  0  0  0  0  0  0  0
    0.1938   -0.2974    0.5262 C   0  0  0  0  0  0  0  0  0  0  0  0
    1.4351    0.2255    0.5870 N   0  0  0  0  0  0  0  0  0  0  0  0
  1  2  1  0
  2  3  1  0
  3  4  2  0
  3  5  1  0
  5  6  1  0
  6  7  1  0
  7  8  1  0
  8  9  1  0
  8 10  1  0
 12 11  1  6
 12 13  1  0
 13 14  1  0
 14 15  1  0
 15 16  2  0
 16 17  1  0
 17 18  2  0
 12 19  1  0
 19 20  1  0
 20 21  2  0
 21 22  1  0
 22 23  2  0
 23 24  1  0
 24 25  2  0
 25 26  1  0
 26 27  1  0
 27 28  2  0
 28 29  1  0
 29 30  2  0
 30 31  1  0
 30 32  1  0
 32 33  2  0
 33 34  1  0
 25 35  1  0
 35 36  2  0
 35 37  1  0
 37 38  1  0
 37 39  1  0
 39 40  2  0
 18 14  1  0
 40 20  1  0
 39 23  1  0
 33 27  1  0
M  END

