
     RDKit          3D

 48 50  0  0  0  0  0  0  0  0999 V2000
    2.8378    2.8476    1.2575 C   0  0  0  0  0  0  0  0  0  0  0  0
    4.1819    1.9504    1.0495 C   0  0  2  0  0  0  0  0  0  0  0  0
    3.6803    1.2852   -0.3467 C   0  0  0  0  0  0  0  0  0  0  0  0
    4.8138    0.4200   -0.6822 N   0  0  0  0  0  0  0  0  0  0  0  0
    5.8862    0.7010   -1.3934 N   0  0  0  0  0  0  0  0  0  0  0  0
    6.6805   -0.3670   -1.4632 C   0  0  0  0  0  0  0  0  0  0  0  0
    6.0809   -1.3514   -0.7691 N   0  0  0  0  0  0  0  0  0  0  0  0
    4.9472   -0.8345   -0.3088 N   0  0  0  0  0  0  0  0  0  0  0  0
    3.7298    0.7817    1.9560 N   0  0  0  0  0  0  0  0  0  0  0  0
    2.5348    0.0964    1.6979 C   0  0  0  0  0  0  0  0  0  0  0  0
    2.0771   -0.9233    2.4318 N   0  0  0  0  0  0  0  0  0  0  0  0
    0.8978   -1.5373    2.1136 C   0  0  0  0  0  0  0  0  0  0  0  0
    0.1567   -1.1170    1.0289 C   0  0  0  0  0  0  0  0  0  0  0  0
   -1.0410   -1.6694    0.6276 C   0  0  0  0  0  0  0  0  0  0  0  0
   -1.7004   -1.1640   -0.4816 C   0  0  0  0  0  0  0  0  0  0  0  0
   -2.9065   -1.6953   -0.9132 O   0  0  0  0  0  0  0  0  0  0  0  0
   -4.0508   -0.9360   -0.9833 C   0  0  0  0  0  0  0  0  0  0  0  0
   -4.7751   -0.6999   -2.1307 C   0  0  0  0  0  0  0  0  0  0  0  0
   -5.9211    0.0755   -2.1337 C   0  0  0  0  0  0  0  0  0  0  0  0
   -6.4039    0.6583   -0.9793 C   0  0  0  0  0  0  0  0  0  0  0  0
   -7.5313    1.4256   -0.9617 F   0  0  0  0  0  0  0  0  0  0  0  0
   -5.6706    0.4153    0.1643 C   0  0  0  0  0  0  0  0  0  0  0  0
   -4.5228   -0.3592    0.1768 C   0  0  0  0  0  0  0  0  0  0  0  0
   -3.8245   -0.5744    1.3388 F   0  0  0  0  0  0  0  0  0  0  0  0
   -1.2032   -0.1110   -1.2188 C   0  0  0  0  0  0  0  0  0  0  0  0
   -1.8272    0.3336   -2.2316 O   0  0  0  0  0  0  0  0  0  0  0  0
   -0.0359    0.4076   -0.8060 N   0  0  0  0  0  0  0  0  0  0  0  0
    0.4946    1.5272   -1.5882 C   0  0  0  0  0  0  0  0  0  0  0  0
    0.6325   -0.0629    0.2725 C   0  0  0  0  0  0  0  0  0  0  0  0
    1.7826    0.4772    0.6474 N   0  0  0  0  0  0  0  0  0  0  0  0
    5.3590   -0.6963    3.0258 N   0  0  0  0  0  0  0  0  0  0  0  0
    4.4165   -0.1448    2.0969 C   0  0  0  0  0  0  0  0  0  0  0  0
    3.6608    0.7995    2.4616 N   0  0  0  0  0  4  0  0  0  0  0  0
    4.3367   -0.6522    0.7919 N   0  0  0  0  0  0  0  0  0  0  0  0
    3.4829   -0.2325   -0.2251 C   0  0  0  0  0  0  0  0  0  0  0  0
    2.0283   -0.3388   -0.0816 C   0  0  0  0  0  0  0  0  0  0  0  0
    1.3781    0.3832    1.0112 C   0  0  0  0  0  0  0  0  0  0  0  0
   -0.0800    0.2618    1.1369 C   0  0  0  0  0  0  0  0  0  0  0  0
   -0.7760    0.7374    0.0091 N   0  0  0  0  0  0  0  0  0  0  0  0
   -0.7094    0.2441   -1.2910 C   0  0  0  0  0  0  0  0  0  0  0  0
   -0.0450   -0.6791   -1.6583 O   0  0  0  0  0  0  0  0  0  0  0  0
   -1.6616    1.0931   -2.2593 C   0  0  1  0  0  0  0  0  0  0  0  0
   -1.3314    0.2942   -3.5859 N   0  0  0  0  0  4  0  0  0  0  0  0
   -3.0190    0.2007   -1.9213 C   0  0  0  0  0  0  0  0  0  0  0  0
   -3.1053    0.4421   -0.4105 C   0  0  0  0  0  0  0  0  0  0  0  0
   -4.2770   -0.2798    0.1359 C   0  0  0  0  0  0  0  0  0  0  0  0
   -5.4123    0.4307    0.4440 O   0  0  0  0  0  1  0  0  0  0  0  0
   -4.2455   -1.5221    0.3196 O   0  0  0  0  0  0  0  0  0  0  0  0
  2  1  1  1
  2  3  1  0
  3  4  1  0
  4  5  1  0
  5  6  2  0
  6  7  1  0
  7  8  2  0
  2  9  1  0
  9 10  1  0
 10 11  2  0
 11 12  1  0
 12 13  2  0
 13 14  1  0
 14 15  2  0
 15 16  1  0
 16 17  1  0
 17 18  2  0
 18 19  1  0
 19 20  2  0
 20 21  1  0
 20 22  1  0
 22 23  2  0
 23 24  1  0
 15 25  1  0
 25 26  2  0
 25 27  1  0
 27 28  1  0
 27 29  1  0
 29 30  2  0
 31 32  1  0
 32 33  2  0
 32 34  1  0
 34 35  1  0
 35 36  1  0
 36 37  1  0
 37 38  1  0
 38 39  1  0
 39 40  1  0
 40 41  2  0
 40 42  1  0
 42 43  1  6
 42 44  1  0
 44 45  1  0
 45 46  1  0
 46 47  1  0
 46 48  2  0
  8  4  1  0
 30 10  1  0
 29 13  1  0
 23 17  1  0
M  CHG  2  33   1  43   1
M  RAD  1  47   2
M  END

