
     RDKit          3D

 46 48  0  0  0  0  0  0  0  0999 V2000
   -4.0505    1.5612   -1.4058 C   0  0  0  0  0  0  0  0  0  0  0  0
   -4.0787    0.4179   -0.4075 C   0  0  0  0  0  0  0  0  0  0  0  0
   -5.4798    0.0773    0.0169 C   0  0  0  0  0  0  0  0  0  0  0  0
   -3.3821   -0.8159   -0.9627 C   0  0  0  0  0  0  0  0  0  0  0  0
   -1.9433   -0.4999   -1.2780 C   0  0  0  0  0  0  0  0  0  0  0  0
   -1.2438   -0.0664   -0.0572 C   0  0  0  0  0  0  0  0  0  0  0  0
   -1.8502   -0.0034    1.0394 O   0  0  0  0  0  0  0  0  0  0  0  0
    0.1284    0.2850   -0.1128 N   0  0  0  0  0  0  0  0  0  0  0  0
    0.8941    0.7185    1.0221 C   0  0  0  0  0  0  0  0  0  0  0  0
    0.8922   -0.3708    2.0670 C   0  0  0  0  0  0  0  0  0  0  0  0
    1.5092   -1.6513    1.5090 C   0  0  0  0  0  0  0  0  0  0  0  0
    2.9416   -1.2715    1.1129 C   0  0  0  0  0  0  0  0  0  0  0  0
    2.8296   -0.2191    0.1153 N   0  0  0  0  0  0  0  0  0  0  0  0
    3.9499    0.3960   -0.4970 C   0  0  0  0  0  0  0  0  0  0  0  0
    3.7525    1.4328   -1.4777 N   0  0  0  0  0  0  0  0  0  0  0  0
    5.1309    0.0098   -0.1589 N   0  0  0  0  0  4  0  0  0  0  0  0
    5.4947    3.6739    0.2850 C   0  0  0  0  0  0  0  0  0  0  0  0
    4.5195    2.3126    0.5404 C   0  0  2  0  0  0  0  0  0  0  0  0
    5.3609    1.4777   -0.6171 C   0  0  0  0  0  0  0  0  0  0  0  0
    4.7828    0.1676   -0.6976 N   0  0  0  0  0  0  0  0  0  0  0  0
    5.1038   -0.9053    0.0093 N   0  0  0  0  0  0  0  0  0  0  0  0
    4.3212   -1.9056   -0.4265 C   0  0  0  0  0  0  0  0  0  0  0  0
    3.5169   -1.4494   -1.4027 N   0  0  0  0  0  0  0  0  0  0  0  0
    3.8286   -0.1722   -1.5422 N   0  0  0  0  0  0  0  0  0  0  0  0
    3.3946    2.8701   -0.4047 N   0  0  0  0  0  0  0  0  0  0  0  0
    2.1461    2.2862   -0.4056 C   0  0  0  0  0  0  0  0  0  0  0  0
    1.0994    2.6326   -1.1593 N   0  0  0  0  0  0  0  0  0  0  0  0
   -0.0944    2.0148   -1.0688 C   0  0  0  0  0  0  0  0  0  0  0  0
   -0.2812    0.9722   -0.1672 C   0  0  0  0  0  0  0  0  0  0  0  0
   -1.4816    0.3085   -0.0363 C   0  0  0  0  0  0  0  0  0  0  0  0
   -1.6025   -0.7152    0.8746 C   0  0  0  0  0  0  0  0  0  0  0  0
   -2.7310   -1.4482    1.1000 O   0  0  0  0  0  0  0  0  0  0  0  0
   -3.9341   -1.3255    0.4921 C   0  0  0  0  0  0  0  0  0  0  0  0
   -5.0474   -1.0361    1.2240 C   0  0  0  0  0  0  0  0  0  0  0  0
   -6.2679   -0.9123    0.6026 C   0  0  0  0  0  0  0  0  0  0  0  0
   -6.4273   -1.0701   -0.7591 C   0  0  0  0  0  0  0  0  0  0  0  0
   -7.6416   -0.9453   -1.3652 F   0  0  0  0  0  0  0  0  0  0  0  0
   -5.2745   -1.3626   -1.4640 C   0  0  0  0  0  0  0  0  0  0  0  0
   -4.0473   -1.4896   -0.8578 C   0  0  0  0  0  0  0  0  0  0  0  0
   -2.9689   -1.7783   -1.6279 F   0  0  0  0  0  0  0  0  0  0  0  0
   -0.4761   -1.0235    1.6253 C   0  0  0  0  0  0  0  0  0  0  0  0
   -0.5278   -1.9604    2.4830 O   0  0  0  0  0  0  0  0  0  0  0  0
    0.6775   -0.3848    1.4986 N   0  0  0  0  0  0  0  0  0  0  0  0
    1.8367   -0.7268    2.2943 C   0  0  0  0  0  0  0  0  0  0  0  0
    0.7901    0.6211    0.6010 C   0  0  0  0  0  0  0  0  0  0  0  0
    1.9307    1.2739    0.4558 N   0  0  0  0  0  0  0  0  0  0  0  0
  1  2  1  0
  2  3  1  0
  2  4  1  0
  4  5  1  0
  5  6  1  0
  6  7  2  0
  6  8  1  0
  8  9  1  0
  9 10  1  0
 10 11  1  0
 11 12  1  0
 12 13  1  0
 13 14  1  0
 14 15  1  0
 14 16  2  0
 18 17  1  6
 18 19  1  0
 19 20  1  0
 20 21  1  0
 21 22  2  0
 22 23  1  0
 23 24  2  0
 18 25  1  0
 25 26  1  0
 26 27  2  0
 27 28  1  0
 28 29  2  0
 29 30  1  0
 30 31  2  0
 31 32  1  0
 32 33  1  0
 33 34  2  0
 34 35  1  0
 35 36  2  0
 36 37  1  0
 36 38  1  0
 38 39  2  0
 39 40  1  0
 31 41  1  0
 41 42  2  0
 41 43  1  0
 43 44  1  0
 43 45  1  0
 45 46  2  0
 24 20  1  0
 46 26  1  0
 45 29  1  0
 39 33  1  0
M  CHG  1  16   1
M  END

