
     RDKit          3D

 44 46  0  0  0  0  0  0  0  0999 V2000
    4.1399   -1.8432    0.3389 C   0  0  0  0  0  0  0  0  0  0  0  0
    4.0993   -0.5397    1.0989 C   0  0  0  0  0  0  0  0  0  0  0  0
    5.2805    0.3461    0.7664 C   0  0  0  0  0  0  0  0  0  0  0  0
    2.7905    0.1817    0.9469 C   0  0  0  0  0  0  0  0  0  0  0  0
    2.5829    0.4765   -0.5305 C   0  0  0  0  0  0  0  0  0  0  0  0
    1.3125    1.1830   -0.7286 N   0  0  0  0  0  0  0  0  0  0  0  0
    0.0800    0.6020   -0.3465 C   0  0  0  0  0  0  0  0  0  0  0  0
    0.1427   -0.5595    0.1742 O   0  0  0  0  0  0  0  0  0  0  0  0
   -1.2279    1.2699   -0.5234 C   0  0  0  0  0  0  0  0  0  0  0  0
   -2.3444    0.3860   -0.0151 C   0  0  0  0  0  0  0  0  0  0  0  0
   -3.6919    1.0843   -0.2020 C   0  0  0  0  0  0  0  0  0  0  0  0
   -4.8180    0.2155    0.3004 C   0  0  0  0  0  0  0  0  0  0  0  0
   -4.8146   -1.0829   -0.4826 C   0  0  0  0  0  0  0  0  0  0  0  0
   -3.5314   -1.7197   -0.2601 N   0  0  0  0  0  4  0  0  0  0  0  0
    3.4348   -0.6368    1.7187 C   0  0  0  0  0  0  0  0  0  0  0  0
    4.1833   -1.8626    0.9010 C   0  0  2  0  0  0  0  0  0  0  0  0
    5.6991   -1.2883    1.1712 C   0  0  0  0  0  0  0  0  0  0  0  0
    5.8073    0.0088    0.6151 N   0  0  0  0  0  0  0  0  0  0  0  0
    5.5153    1.1079    1.3207 N   0  0  0  0  0  0  0  0  0  0  0  0
    5.6998    2.2011    0.5661 C   0  0  0  0  0  0  0  0  0  0  0  0
    6.1138    1.7587   -0.6273 N   0  0  0  0  0  0  0  0  0  0  0  0
    6.1635    0.4581   -0.5552 N   0  0  0  0  0  0  0  0  0  0  0  0
    4.0269   -1.1701   -0.5039 N   0  0  0  0  0  0  0  0  0  0  0  0
    2.6476   -0.9407   -0.8434 C   0  0  0  0  0  0  0  0  0  0  0  0
    2.3445   -0.3545   -2.0164 N   0  0  0  0  0  0  0  0  0  0  0  0
    1.0806   -0.1073   -2.4034 C   0  0  0  0  0  0  0  0  0  0  0  0
    0.0304   -0.4653   -1.5697 C   0  0  0  0  0  0  0  0  0  0  0  0
   -1.2852   -0.2452   -1.8960 C   0  0  0  0  0  0  0  0  0  0  0  0
   -2.2488   -0.6398   -0.9955 C   0  0  0  0  0  0  0  0  0  0  0  0
   -3.5793   -0.4289   -1.3016 O   0  0  0  0  0  0  0  0  0  0  0  0
   -4.4362    0.3460   -0.5365 C   0  0  0  0  0  0  0  0  0  0  0  0
   -5.5600   -0.2536    0.0017 C   0  0  0  0  0  0  0  0  0  0  0  0
   -6.4156    0.4925    0.7578 C   0  0  0  0  0  0  0  0  0  0  0  0
   -6.1967    1.8326    1.0052 C   0  0  0  0  0  0  0  0  0  0  0  0
   -7.0614    2.5613    1.7619 F   0  0  0  0  0  0  0  0  0  0  0  0
   -5.0580    2.3972    0.4475 C   0  0  0  0  0  0  0  0  0  0  0  0
   -4.1793    1.6818   -0.3143 C   0  0  0  0  0  0  0  0  0  0  0  0
   -3.0624    2.2258   -0.8643 F   0  0  0  0  0  0  0  0  0  0  0  0
   -1.9029   -1.2384    0.1989 C   0  0  0  0  0  0  0  0  0  0  0  0
   -2.8184   -1.5963    1.0197 O   0  0  0  0  0  0  0  0  0  0  0  0
   -0.6111   -1.4367    0.4828 N   0  0  0  0  0  0  0  0  0  0  0  0
   -0.2863   -2.0750    1.7608 C   0  0  0  0  0  0  0  0  0  0  0  0
    0.3334   -1.0578   -0.3837 C   0  0  0  0  0  0  0  0  0  0  0  0
    1.6214   -1.2743   -0.0619 N   0  0  0  0  0  0  0  0  0  0  0  0
  1  2  1  0
  2  3  1  0
  2  4  1  0
  4  5  1  0
  5  6  1  0
  6  7  1  0
  7  8  2  0
  7  9  1  0
  9 10  1  0
 10 11  1  0
 11 12  1  0
 12 13  1  0
 13 14  1  0
 16 15  1  1
 16 17  1  0
 17 18  1  0
 18 19  1  0
 19 20  2  0
 20 21  1  0
 21 22  2  0
 16 23  1  0
 23 24  1  0
 24 25  2  0
 25 26  1  0
 26 27  2  0
 27 28  1  0
 28 29  2  0
 29 30  1  0
 30 31  1  0
 31 32  2  0
 32 33  1  0
 33 34  2  0
 34 35  1  0
 34 36  1  0
 36 37  2  0
 37 38  1  0
 29 39  1  0
 39 40  2  0
 39 41  1  0
 41 42  1  0
 41 43  1  0
 43 44  2  0
 22 18  1  0
 44 24  1  0
 43 27  1  0
 37 31  1  0
M  CHG  1  14   1
M  END

