
     RDKit          3D

 46 48  0  0  0  0  0  0  0  0999 V2000
    5.7109   -0.6652   -1.4393 C   0  0  0  0  0  0  0  0  0  0  0  0
    4.2645    0.1809   -1.3047 C   0  0  2  0  0  0  0  0  0  0  0  0
    4.5372    0.4912    0.3131 C   0  0  0  0  0  0  0  0  0  0  0  0
    5.7809    1.2316    0.2427 N   0  0  0  0  0  0  0  0  0  0  0  0
    7.0146    0.7503    0.2845 N   0  0  0  0  0  0  0  0  0  0  0  0
    7.8827    1.7625    0.1899 C   0  0  0  0  0  0  0  0  0  0  0  0
    7.1459    2.8832    0.0884 N   0  0  0  0  0  0  0  0  0  0  0  0
    5.8536    2.5419    0.1223 N   0  0  0  0  0  0  0  0  0  0  0  0
    3.4464   -1.1340   -0.9947 N   0  0  0  0  0  0  0  0  0  0  0  0
    2.0606   -0.9167   -0.7883 C   0  0  0  0  0  0  0  0  0  0  0  0
    1.5626    0.3178   -0.8649 N   0  0  0  0  0  0  0  0  0  0  0  0
    0.2593    0.5624   -0.6760 C   0  0  0  0  0  0  0  0  0  0  0  0
   -0.5754   -0.5057   -0.3955 C   0  0  0  0  0  0  0  0  0  0  0  0
   -1.9121   -0.3056   -0.1952 C   0  0  0  0  0  0  0  0  0  0  0  0
   -2.7104   -1.3904    0.0814 C   0  0  0  0  0  0  0  0  0  0  0  0
   -4.0895   -1.2130    0.2919 O   0  0  0  0  0  0  0  0  0  0  0  0
   -4.6693    0.0313    0.2279 C   0  0  0  0  0  0  0  0  0  0  0  0
   -5.6802    0.3236   -0.6929 C   0  0  0  0  0  0  0  0  0  0  0  0
   -6.2661    1.5684   -0.7630 C   0  0  0  0  0  0  0  0  0  0  0  0
   -5.8592    2.5680    0.0895 C   0  0  0  0  0  0  0  0  0  0  0  0
   -6.4359    3.7942    0.0212 F   0  0  0  0  0  0  0  0  0  0  0  0
   -4.8496    2.2939    1.0170 C   0  0  0  0  0  0  0  0  0  0  0  0
   -4.2681    1.0421    1.0794 C   0  0  0  0  0  0  0  0  0  0  0  0
   -3.2747    0.7517    1.9831 F   0  0  0  0  0  0  0  0  0  0  0  0
   -2.1568   -2.6302    0.1493 C   0  0  0  0  0  0  0  0  0  0  0  0
   -2.9063   -3.6121    0.4042 O   0  0  0  0  0  0  0  0  0  0  0  0
   -0.8410   -2.8129   -0.0497 N   0  0  0  0  0  0  0  0  0  0  0  0
   -0.2741   -4.1560    0.0293 C   0  0  0  0  0  0  0  0  0  0  0  0
   -0.0293   -1.7592   -0.3246 C   0  0  0  0  0  0  0  0  0  0  0  0
    1.2789   -1.9939   -0.5155 N   0  0  0  0  0  0  0  0  0  0  0  0
    5.8957    1.5022    0.4029 N   0  0  0  0  0  0  0  0  0  0  0  0
    4.5652    0.9977    0.4381 C   0  0  0  0  0  0  0  0  0  0  0  0
    3.6273    1.5608    1.1183 N   0  0  0  0  0  4  0  0  0  0  0  0
    4.1945   -0.1856   -0.2913 N   0  0  0  0  0  0  0  0  0  0  0  0
    2.8127   -0.6783   -0.2284 C   0  0  0  0  0  0  0  0  0  0  0  0
    2.4232   -1.0154    1.1884 C   0  0  0  0  0  0  0  0  0  0  0  0
    0.9915   -1.5116    1.1534 C   0  0  0  0  0  0  0  0  0  0  0  0
    0.0543   -0.4615    0.6027 C   0  0  0  0  0  0  0  0  0  0  0  0
   -1.3326   -1.0049    0.5927 C   0  0  0  0  0  0  0  0  0  0  0  0
   -1.6095   -2.1502    0.9984 O   0  0  0  0  0  0  0  0  0  0  0  0
   -2.3466   -0.1631    0.0981 N   0  0  0  0  0  0  0  0  0  0  0  0
   -3.7479   -0.5447    0.0224 C   0  0  0  0  0  0  0  0  0  0  0  0
   -4.4710    0.6681   -0.5689 C   0  0  0  0  0  0  0  0  0  0  0  0
   -3.8711    0.9084   -1.9009 C   0  0  0  0  0  0  0  0  0  0  0  0
   -2.8523    1.8411   -2.0157 O   0  0  0  0  0  1  0  0  0  0  0  0
   -4.3333    0.2371   -2.8647 O   0  0  0  0  0  0  0  0  0  0  0  0
  2  1  1  6
  2  3  1  0
  3  4  1  0
  4  5  1  0
  5  6  2  0
  6  7  1  0
  7  8  2  0
  2  9  1  0
  9 10  1  0
 10 11  2  0
 11 12  1  0
 12 13  2  0
 13 14  1  0
 14 15  2  0
 15 16  1  0
 16 17  1  0
 17 18  2  0
 18 19  1  0
 19 20  2  0
 20 21  1  0
 20 22  1  0
 22 23  2  0
 23 24  1  0
 15 25  1  0
 25 26  2  0
 25 27  1  0
 27 28  1  0
 27 29  1  0
 29 30  2  0
 31 32  1  0
 32 33  2  0
 32 34  1  0
 34 35  1  0
 35 36  1  0
 36 37  1  0
 37 38  1  0
 38 39  1  0
 39 40  2  0
 39 41  1  0
 41 42  1  0
 42 43  1  0
 43 44  1  0
 44 45  1  0
 44 46  2  0
  8  4  1  0
 30 10  1  0
 29 13  1  0
 23 17  1  0
M  CHG  1  33   1
M  RAD  1  45   2
M  END

