
     RDKit          3D

 46 48  0  0  0  0  0  0  0  0999 V2000
    2.6268   -0.4932    2.4885 C   0  0  0  0  0  0  0  0  0  0  0  0
    2.9813    0.6537    1.5456 C   0  0  0  0  0  0  0  0  0  0  0  0
    3.7562    1.6583    2.3711 C   0  0  0  0  0  0  0  0  0  0  0  0
    3.8763    0.1791    0.4426 C   0  0  0  0  0  0  0  0  0  0  0  0
    3.1648   -0.8930   -0.3331 C   0  0  0  0  0  0  0  0  0  0  0  0
    1.8969   -0.3821   -0.9282 C   0  0  0  0  0  0  0  0  0  0  0  0
    1.5732    0.8152   -0.7328 O   0  0  0  0  0  0  0  0  0  0  0  0
    1.0767   -1.2447   -1.7015 N   0  0  0  0  0  0  0  0  0  0  0  0
   -0.1754   -0.7818   -2.3026 C   0  0  0  0  0  0  0  0  0  0  0  0
   -1.0969   -0.3111   -1.2070 C   0  0  0  0  0  0  0  0  0  0  0  0
   -1.3581   -1.4520   -0.2863 C   0  0  0  0  0  0  0  0  0  0  0  0
   -2.2380   -1.2342    0.8707 C   0  0  0  0  0  0  0  0  0  0  0  0
   -3.5586   -0.8458    0.5666 N   0  0  0  0  0  0  0  0  0  0  0  0
   -3.9936    0.3211   -0.0529 C   0  0  0  0  0  0  0  0  0  0  0  0
   -5.3779    0.6055   -0.3131 N   0  0  0  0  0  0  0  0  0  0  0  0
   -3.1535    1.2153   -0.4274 N   0  0  0  0  0  4  0  0  0  0  0  0
   -3.7898    2.6547   -1.8299 C   0  0  0  0  0  0  0  0  0  0  0  0
   -4.7064    1.2963   -1.6132 C   0  0  2  0  0  0  0  0  0  0  0  0
   -4.0865    0.9887   -0.1171 C   0  0  0  0  0  0  0  0  0  0  0  0
   -4.8070   -0.2241    0.2476 N   0  0  0  0  0  0  0  0  0  0  0  0
   -4.4387   -1.4676    0.0111 N   0  0  0  0  0  0  0  0  0  0  0  0
   -5.3757   -2.2933    0.5056 C   0  0  0  0  0  0  0  0  0  0  0  0
   -6.3043   -1.4905    1.0391 N   0  0  0  0  0  0  0  0  0  0  0  0
   -5.9531   -0.2425    0.8790 N   0  0  0  0  0  0  0  0  0  0  0  0
   -3.7191    0.3438   -2.3738 N   0  0  0  0  0  0  0  0  0  0  0  0
   -2.4049    0.2202   -1.9524 C   0  0  0  0  0  0  0  0  0  0  0  0
   -1.5625   -0.5923   -2.6008 N   0  0  0  0  0  0  0  0  0  0  0  0
   -0.2835   -0.7221   -2.2027 C   0  0  0  0  0  0  0  0  0  0  0  0
    0.2065   -0.0243   -1.1139 C   0  0  0  0  0  0  0  0  0  0  0  0
    1.4851   -0.1114   -0.6625 C   0  0  0  0  0  0  0  0  0  0  0  0
    1.8542    0.6363    0.4358 C   0  0  0  0  0  0  0  0  0  0  0  0
    3.1452    0.5865    0.9393 O   0  0  0  0  0  0  0  0  0  0  0  0
    4.0697   -0.2368    0.3133 C   0  0  0  0  0  0  0  0  0  0  0  0
    3.7149   -0.9901   -0.7857 C   0  0  0  0  0  0  0  0  0  0  0  0
    4.6193   -1.8144   -1.4218 C   0  0  0  0  0  0  0  0  0  0  0  0
    5.9251   -1.9292   -0.9931 C   0  0  0  0  0  0  0  0  0  0  0  0
    6.8035   -2.7451   -1.6300 F   0  0  0  0  0  0  0  0  0  0  0  0
    6.2738   -1.1734    0.1064 C   0  0  0  0  0  0  0  0  0  0  0  0
    5.3777   -0.3456    0.7505 C   0  0  0  0  0  0  0  0  0  0  0  0
    5.7436    0.3925    1.8354 F   0  0  0  0  0  0  0  0  0  0  0  0
    0.9686    1.4671    1.0881 C   0  0  0  0  0  0  0  0  0  0  0  0
    1.3298    2.1534    2.1061 O   0  0  0  0  0  0  0  0  0  0  0  0
   -0.2868    1.5380    0.6267 N   0  0  0  0  0  0  0  0  0  0  0  0
   -1.2215    2.4175    1.3186 C   0  0  0  0  0  0  0  0  0  0  0  0
   -0.6620    0.8157   -0.4425 C   0  0  0  0  0  0  0  0  0  0  0  0
   -1.9151    0.8921   -0.8960 N   0  0  0  0  0  0  0  0  0  0  0  0
  1  2  1  0
  2  3  1  0
  2  4  1  0
  4  5  1  0
  5  6  1  0
  6  7  2  0
  6  8  1  0
  8  9  1  0
  9 10  1  0
 10 11  1  0
 11 12  1  0
 12 13  1  0
 13 14  1  0
 14 15  1  0
 14 16  2  0
 18 17  1  6
 18 19  1  0
 19 20  1  0
 20 21  1  0
 21 22  2  0
 22 23  1  0
 23 24  2  0
 18 25  1  0
 25 26  1  0
 26 27  2  0
 27 28  1  0
 28 29  2  0
 29 30  1  0
 30 31  2  0
 31 32  1  0
 32 33  1  0
 33 34  2  0
 34 35  1  0
 35 36  2  0
 36 37  1  0
 36 38  1  0
 38 39  2  0
 39 40  1  0
 31 41  1  0
 41 42  2  0
 41 43  1  0
 43 44  1  0
 43 45  1  0
 45 46  2  0
 24 20  1  0
 46 26  1  0
 45 29  1  0
 39 33  1  0
M  CHG  1  16   1
M  END

