
     RDKit          3D

 38 40  0  0  0  0  0  0  0  0999 V2000
    2.5331    0.3475   -1.0836 C   0  0  0  0  0  0  0  0  0  0  0  0
    1.6513   -0.0605    0.0043 C   0  0  0  0  0  0  0  0  0  0  0  0
    2.1218   -0.5427    1.0625 O   0  0  0  0  0  0  0  0  0  0  0  0
    0.2726    0.0562   -0.0618 N   0  0  0  0  0  0  0  0  0  0  0  0
   -0.6664   -0.3126    0.9430 C   0  0  0  0  0  0  0  0  0  0  0  0
   -2.1641    0.0224    0.3838 C   0  0  1  0  0  0  0  0  0  0  0  0
   -1.7182    1.3763   -0.4283 C   0  0  0  0  0  0  0  0  0  0  0  0
   -2.0302   -0.8865   -0.8197 O   0  0  0  0  0  0  0  0  0  0  0  0
   -3.7457   -1.0963    0.9112 C   0  0  0  0  0  0  0  0  0  0  0  0
   -4.2767   -0.6721   -0.6047 C   0  0  2  0  0  0  0  0  0  0  0  0
   -5.6701   -1.5789   -0.4503 C   0  0  0  0  0  0  0  0  0  0  0  0
   -6.3218   -0.9926    0.6943 N   0  0  0  0  0  0  0  0  0  0  0  0
   -7.1869    0.0036    0.6713 N   0  0  0  0  0  0  0  0  0  0  0  0
   -7.5641    0.2592    1.9269 C   0  0  0  0  0  0  0  0  0  0  0  0
   -6.9060   -0.6059    2.7033 N   0  0  0  0  0  0  0  0  0  0  0  0
   -6.1435   -1.3728    1.9373 N   0  0  0  0  0  0  0  0  0  0  0  0
   -3.4925   -1.8494   -1.3079 N   0  0  0  0  0  0  0  0  0  0  0  0
   -2.0922   -1.7135   -1.0756 C   0  0  0  0  0  0  0  0  0  0  0  0
   -1.2507   -2.6471   -1.6109 N   0  0  0  0  0  0  0  0  0  0  0  0
    0.0755   -2.6125   -1.4534 C   0  0  0  0  0  0  0  0  0  0  0  0
    0.6473   -1.5899   -0.7155 C   0  0  0  0  0  0  0  0  0  0  0  0
    2.0104   -1.5044   -0.5204 C   0  0  0  0  0  0  0  0  0  0  0  0
    2.4814   -0.4482    0.2297 C   0  0  0  0  0  0  0  0  0  0  0  0
    3.8500   -0.2690    0.4876 O   0  0  0  0  0  0  0  0  0  0  0  0
    4.4986    0.8852    0.0724 C   0  0  0  0  0  0  0  0  0  0  0  0
    3.8308    1.9041   -0.6095 C   0  0  0  0  0  0  0  0  0  0  0  0
    4.5519    3.0189   -0.9865 C   0  0  0  0  0  0  0  0  0  0  0  0
    5.8978    3.1747   -0.7226 C   0  0  0  0  0  0  0  0  0  0  0  0
    6.5731    4.3020   -1.1176 F   0  0  0  0  0  0  0  0  0  0  0  0
    6.5315    2.1518   -0.0473 C   0  0  0  0  0  0  0  0  0  0  0  0
    5.8418    1.0071    0.3526 C   0  0  0  0  0  0  0  0  0  0  0  0
    6.4638    0.0033    1.0154 F   0  0  0  0  0  0  0  0  0  0  0  0
    1.5855    0.4614    0.7436 C   0  0  0  0  0  0  0  0  0  0  0  0
    1.9867    1.4431    1.4370 O   0  0  0  0  0  0  0  0  0  0  0  0
    0.2622    0.3700    0.5486 N   0  0  0  0  0  0  0  0  0  0  0  0
   -0.6626    1.3564    1.1106 C   0  0  0  0  0  0  0  0  0  0  0  0
   -0.2299   -0.6659   -0.1901 C   0  0  0  0  0  0  0  0  0  0  0  0
   -1.5456   -0.7223   -0.3610 N   0  0  0  0  0  0  0  0  0  0  0  0
  1  2  1  0
  2  3  2  0
  2  4  1  0
  4  5  1  0
  5  6  1  0
  6  7  1  6
  6  8  1  0
 10  9  1  1
 10 11  1  0
 11 12  1  0
 12 13  1  0
 13 14  2  0
 14 15  1  0
 15 16  2  0
 10 17  1  0
 17 18  1  0
 18 19  2  0
 19 20  1  0
 20 21  2  0
 21 22  1  0
 22 23  2  0
 23 24  1  0
 24 25  1  0
 25 26  2  0
 26 27  1  0
 27 28  2  0
 28 29  1  0
 28 30  1  0
 30 31  2  0
 31 32  1  0
 23 33  1  0
 33 34  2  0
 33 35  1  0
 35 36  1  0
 35 37  1  0
 37 38  2  0
 16 12  1  0
 38 18  1  0
 37 21  1  0
 31 25  1  0
M  END

