
     RDKit          3D

 41 43  0  0  0  0  0  0  0  0999 V2000
   -3.2983    1.4064   -0.1420 C   0  0  0  0  0  0  0  0  0  0  0  0
   -2.5672    0.5311   -1.1398 C   0  0  0  0  0  0  0  0  0  0  0  0
   -2.3771   -0.8498   -0.2099 C   0  0  2  0  0  0  0  0  0  0  0  0
   -1.5256   -0.0522    0.9089 C   0  0  0  0  0  0  0  0  0  0  0  0
   -1.1894   -1.4244   -1.0916 C   0  0  0  0  0  0  0  0  0  0  0  0
   -0.0470   -0.7233   -1.2094 N   0  0  0  0  0  0  0  0  0  0  0  0
    0.9202   -0.4220   -0.2414 C   0  0  0  0  0  0  0  0  0  0  0  0
    0.8536   -0.8128    0.9515 O   0  0  0  0  0  0  0  0  0  0  0  0
    2.1362    0.4164   -0.5896 C   0  0  0  0  0  0  0  0  0  0  0  0
    2.9973    0.5800    0.6280 C   0  0  0  0  0  0  0  0  0  0  0  0
    4.0971    1.3506    0.2711 O   0  0  0  0  0  0  0  0  0  0  0  0
    4.7112   -1.9682   -1.9652 C   0  0  0  0  0  0  0  0  0  0  0  0
    5.1876   -0.5215   -1.3289 C   0  0  2  0  0  0  0  0  0  0  0  0
    4.6543   -0.8695    0.1828 C   0  0  0  0  0  0  0  0  0  0  0  0
    5.0115    0.3426    0.8833 N   0  0  0  0  0  0  0  0  0  0  0  0
    6.1743    0.5155    1.4811 N   0  0  0  0  0  0  0  0  0  0  0  0
    6.1713    1.7468    2.0289 C   0  0  0  0  0  0  0  0  0  0  0  0
    4.9829    2.2944    1.7409 N   0  0  0  0  0  0  0  0  0  0  0  0
    4.2932    1.4332    1.0481 N   0  0  0  0  0  0  0  0  0  0  0  0
    3.8948    0.2343   -1.7684 N   0  0  0  0  0  0  0  0  0  0  0  0
    2.6802   -0.3594   -1.3495 C   0  0  0  0  0  0  0  0  0  0  0  0
    2.6197   -1.5054   -0.6202 N   0  0  0  0  0  0  0  0  0  0  0  0
    1.4312   -2.0179   -0.2537 C   0  0  0  0  0  0  0  0  0  0  0  0
    0.2542   -1.3932   -0.6091 C   0  0  0  0  0  0  0  0  0  0  0  0
   -0.9886   -1.8794   -0.2574 C   0  0  0  0  0  0  0  0  0  0  0  0
   -2.1247   -1.1800   -0.6616 C   0  0  0  0  0  0  0  0  0  0  0  0
   -3.4082   -1.6323   -0.3300 O   0  0  0  0  0  0  0  0  0  0  0  0
   -4.2957   -0.8760    0.4194 C   0  0  0  0  0  0  0  0  0  0  0  0
   -5.5313   -0.4771   -0.0450 C   0  0  0  0  0  0  0  0  0  0  0  0
   -6.3811    0.2756    0.7382 C   0  0  0  0  0  0  0  0  0  0  0  0
   -6.0343    0.6615    2.0162 C   0  0  0  0  0  0  0  0  0  0  0  0
   -6.9133    1.3923    2.7162 F   0  0  0  0  0  0  0  0  0  0  0  0
   -4.8001    0.2661    2.4871 C   0  0  0  0  0  0  0  0  0  0  0  0
   -3.9524   -0.4881    1.6981 C   0  0  0  0  0  0  0  0  0  0  0  0
   -2.7222   -0.8852    2.1604 F   0  0  0  0  0  0  0  0  0  0  0  0
   -2.0554   -0.0188   -1.4008 C   0  0  0  0  0  0  0  0  0  0  0  0
   -3.1096    0.5773   -1.7424 O   0  0  0  0  0  0  0  0  0  0  0  0
   -0.8291    0.4272   -1.7264 N   0  0  0  0  0  0  0  0  0  0  0  0
   -0.7358    1.6550   -2.5087 C   0  0  0  0  0  0  0  0  0  0  0  0
    0.3007   -0.2310   -1.3481 C   0  0  0  0  0  0  0  0  0  0  0  0
    1.5147    0.2338   -1.6853 N   0  0  0  0  0  0  0  0  0  0  0  0
  1  2  1  0
  2  3  1  0
  3  4  1  1
  3  5  1  0
  5  6  1  0
  6  7  1  0
  7  8  2  0
  7  9  1  0
  9 10  1  0
 10 11  1  0
 13 12  1  6
 13 14  1  0
 14 15  1  0
 15 16  1  0
 16 17  2  0
 17 18  1  0
 18 19  2  0
 13 20  1  0
 20 21  1  0
 21 22  2  0
 22 23  1  0
 23 24  2  0
 24 25  1  0
 25 26  2  0
 26 27  1  0
 27 28  1  0
 28 29  2  0
 29 30  1  0
 30 31  2  0
 31 32  1  0
 31 33  1  0
 33 34  2  0
 34 35  1  0
 26 36  1  0
 36 37  2  0
 36 38  1  0
 38 39  1  0
 38 40  1  0
 40 41  2  0
 19 15  1  0
 41 21  1  0
 40 24  1  0
 34 28  1  0
M  END

