
     RDKit          3D

 50 53  0  0  0  0  0  0  0  0999 V2000
    5.2764   -1.6615    3.9049 C   0  0  0  0  0  0  0  0  0  0  0  0
    4.4016   -1.4233    2.5070 C   0  0  2  0  0  0  0  0  0  0  0  0
    5.5814   -0.4844    1.9007 C   0  0  0  0  0  0  0  0  0  0  0  0
    5.1094   -0.0838    0.6033 N   0  0  0  0  0  0  0  0  0  0  0  0
    5.3017   -0.7658   -0.5104 N   0  0  0  0  0  0  0  0  0  0  0  0
    4.7525   -0.0793   -1.5187 C   0  0  0  0  0  0  0  0  0  0  0  0
    4.2196    1.0340   -1.0118 N   0  0  0  0  0  0  0  0  0  0  0  0
    4.4360    1.0359    0.2904 N   0  0  0  0  0  0  0  0  0  0  0  0
    3.5992   -0.2548    3.1254 N   0  0  0  0  0  0  0  0  0  0  0  0
    2.4043    0.1337    2.4353 C   0  0  0  0  0  0  0  0  0  0  0  0
    1.6520    1.1523    2.8870 N   0  0  0  0  0  0  0  0  0  0  0  0
    0.5112    1.5417    2.2957 C   0  0  0  0  0  0  0  0  0  0  0  0
    0.0339    0.8958    1.1548 C   0  0  0  0  0  0  0  0  0  0  0  0
   -1.1216    1.2699    0.5357 C   0  0  0  0  0  0  0  0  0  0  0  0
   -1.6004    0.5966   -0.6349 C   0  0  0  0  0  0  0  0  0  0  0  0
   -2.7430    1.0238   -1.1853 O   0  0  0  0  0  0  0  0  0  0  0  0
   -3.9892    0.6636   -1.4579 C   0  0  0  0  0  0  0  0  0  0  0  0
   -4.9828    1.4248   -0.7628 C   0  0  0  0  0  0  0  0  0  0  0  0
   -6.3178    1.2122   -0.9045 C   0  0  0  0  0  0  0  0  0  0  0  0
   -6.8009    0.2345   -1.7402 C   0  0  0  0  0  0  0  0  0  0  0  0
   -8.1363    0.0499   -1.8546 F   0  0  0  0  0  0  0  0  0  0  0  0
   -5.8788   -0.5118   -2.4211 C   0  0  0  0  0  0  0  0  0  0  0  0
   -4.4900   -0.2946   -2.2778 C   0  0  0  0  0  0  0  0  0  0  0  0
   -3.6584   -1.0705   -3.0206 F   0  0  0  0  0  0  0  0  0  0  0  0
   -0.7908   -0.4195   -1.0353 C   0  0  0  0  0  0  0  0  0  0  0  0
   -1.0760   -1.1039   -2.0533 O   0  0  0  0  0  0  0  0  0  0  0  0
    0.3708   -0.7772   -0.3918 N   0  0  0  0  0  0  0  0  0  0  0  0
    1.1779   -1.8862   -0.8955 C   0  0  0  0  0  0  0  0  0  0  0  0
    0.8108   -0.1454    0.7001 C   0  0  0  0  0  0  0  0  0  0  0  0
    1.9472   -0.4910    1.3359 N   0  0  0  0  0  0  0  0  0  0  0  0
    5.2541   -3.5356    1.2143 N   0  0  0  0  0  0  0  0  0  0  0  0
    5.0446   -2.1319    0.9639 C   0  0  0  0  0  0  0  0  0  0  0  0
    4.5264   -1.8344   -0.1632 N   0  0  0  0  0  4  0  0  0  0  0  0
    5.3788   -1.1440    1.8794 N   0  0  0  0  0  0  0  0  0  0  0  0
    5.2310    0.2433    1.7709 C   0  0  0  0  0  0  0  0  0  0  0  0
    3.8812    0.8175    1.6602 C   0  0  0  0  0  0  0  0  0  0  0  0
    3.1142    0.3621    0.4604 C   0  0  0  0  0  0  0  0  0  0  0  0
    1.7360    0.9825    0.3969 C   0  0  0  0  0  0  0  0  0  0  0  0
    1.0924    0.4716   -0.7971 N   0  0  0  0  0  0  0  0  0  0  0  0
   -0.2511    0.8866   -1.1350 C   0  0  0  0  0  0  0  0  0  0  0  0
   -0.7896    1.6916   -0.3415 O   0  0  0  0  0  0  0  0  0  0  0  0
   -0.9020    0.3653   -2.3492 C   0  0  0  0  0  0  0  0  0  0  0  0
   -2.2830    0.8525   -2.5184 C   0  0  0  0  0  0  0  0  0  0  0  0
   -3.2422    0.5030   -1.4533 C   0  0  0  0  0  0  0  0  0  0  0  0
   -3.9733   -0.6901   -1.4873 C   0  0  0  0  0  0  0  0  0  0  0  0
   -4.8710   -0.9806   -0.4815 C   0  0  0  0  0  0  0  0  0  0  0  0
   -5.0928   -0.1353    0.5850 C   0  0  0  0  0  0  0  0  0  0  0  0
   -6.0116   -0.4876    1.5654 O   0  0  0  0  0  0  0  0  0  0  0  0
   -4.3719    1.0403    0.6178 C   0  0  0  0  0  0  0  0  0  0  0  0
   -3.4702    1.3376   -0.3875 C   0  0  0  0  0  0  0  0  0  0  0  0
  2  1  1  1
  2  3  1  0
  3  4  1  0
  4  5  1  0
  5  6  2  0
  6  7  1  0
  7  8  2  0
  2  9  1  0
  9 10  1  0
 10 11  2  0
 11 12  1  0
 12 13  2  0
 13 14  1  0
 14 15  2  0
 15 16  1  0
 16 17  1  0
 17 18  2  0
 18 19  1  0
 19 20  2  0
 20 21  1  0
 20 22  1  0
 22 23  2  0
 23 24  1  0
 15 25  1  0
 25 26  2  0
 25 27  1  0
 27 28  1  0
 27 29  1  0
 29 30  2  0
 31 32  1  0
 32 33  2  0
 32 34  1  0
 34 35  1  0
 35 36  1  0
 36 37  1  0
 37 38  1  0
 38 39  1  0
 39 40  1  0
 40 41  2  0
 40 42  1  0
 42 43  1  0
 43 44  1  0
 44 45  2  0
 45 46  1  0
 46 47  2  0
 47 48  1  0
 47 49  1  0
 49 50  2  0
  8  4  1  0
 30 10  1  0
 50 44  1  0
 29 13  1  0
 23 17  1  0
M  CHG  1  33   1
M  END

