
     RDKit          3D

 44 46  0  0  0  0  0  0  0  0999 V2000
    4.4951    1.2063    0.4642 C   0  0  0  0  0  0  0  0  0  0  0  0
    3.5737    1.7484    1.4808 C   0  0  0  0  0  0  0  0  0  0  0  0
    2.1887    0.8770    1.4769 C   0  0  2  0  0  0  0  0  0  0  0  0
    2.9302   -0.5455    1.8368 C   0  0  0  0  0  0  0  0  0  0  0  0
    2.1845    0.6107   -0.1326 C   0  0  0  0  0  0  0  0  0  0  0  0
    0.9307   -0.2105   -0.3333 C   0  0  0  0  0  0  0  0  0  0  0  0
    0.2211   -0.4961    0.6468 O   0  0  0  0  0  0  0  0  0  0  0  0
    0.5343   -0.6657   -1.5905 N   0  0  0  0  0  0  0  0  0  0  0  0
   -0.6130   -1.4331   -1.9123 C   0  0  0  0  0  0  0  0  0  0  0  0
   -1.9470   -0.8963   -1.6537 C   0  0  0  0  0  0  0  0  0  0  0  0
   -2.2973   -0.5656   -0.2518 C   0  0  0  0  0  0  0  0  0  0  0  0
   -3.6608   -0.0404   -0.1525 C   0  0  0  0  0  0  0  0  0  0  0  0
   -4.1604    0.3282    1.1233 N   0  0  0  0  0  0  0  0  0  0  0  0
   -4.3799    0.0826   -1.1831 O   0  0  0  0  0  0  0  0  0  0  0  0
    3.9991   -1.4435    1.7598 C   0  0  0  0  0  0  0  0  0  0  0  0
    4.7868   -1.0325    0.3430 C   0  0  2  0  0  0  0  0  0  0  0  0
    5.9329   -0.1406    1.1699 C   0  0  0  0  0  0  0  0  0  0  0  0
    6.7934    0.3582    0.1129 N   0  0  0  0  0  0  0  0  0  0  0  0
    6.7265    1.4638   -0.5908 N   0  0  0  0  0  0  0  0  0  0  0  0
    7.7290    1.5278   -1.4670 C   0  0  0  0  0  0  0  0  0  0  0  0
    8.4465    0.4020   -1.2895 N   0  0  0  0  0  0  0  0  0  0  0  0
    7.8531   -0.2868   -0.3238 N   0  0  0  0  0  0  0  0  0  0  0  0
    3.8640    0.2239    0.1040 N   0  0  0  0  0  0  0  0  0  0  0  0
    2.4837   -0.1408   -0.0165 C   0  0  0  0  0  0  0  0  0  0  0  0
    2.1022   -1.4154    0.0741 N   0  0  0  0  0  0  0  0  0  0  0  0
    0.8324   -1.8197   -0.0294 C   0  0  0  0  0  0  0  0  0  0  0  0
   -0.1600   -0.8486   -0.2463 C   0  0  0  0  0  0  0  0  0  0  0  0
   -1.4398   -1.2032   -0.3559 C   0  0  0  0  0  0  0  0  0  0  0  0
   -2.4424   -0.1918   -0.5781 C   0  0  0  0  0  0  0  0  0  0  0  0
   -3.6932   -0.6650   -0.6737 O   0  0  0  0  0  0  0  0  0  0  0  0
   -4.8454   -0.5916   -0.0436 C   0  0  0  0  0  0  0  0  0  0  0  0
   -5.2578   -1.8142    0.5664 C   0  0  0  0  0  0  0  0  0  0  0  0
   -6.4169   -1.9037    1.2470 C   0  0  0  0  0  0  0  0  0  0  0  0
   -7.2236   -0.7935    1.3586 C   0  0  0  0  0  0  0  0  0  0  0  0
   -8.4039   -0.8876    2.0537 F   0  0  0  0  0  0  0  0  0  0  0  0
   -6.8543    0.3900    0.7841 C   0  0  0  0  0  0  0  0  0  0  0  0
   -5.6507    0.4962    0.0722 C   0  0  0  0  0  0  0  0  0  0  0  0
   -5.3891    1.7205   -0.5081 F   0  0  0  0  0  0  0  0  0  0  0  0
   -1.9579    1.0683   -0.6564 C   0  0  0  0  0  0  0  0  0  0  0  0
   -2.7322    2.0454   -0.8530 O   0  0  0  0  0  0  0  0  0  0  0  0
   -0.6548    1.4167   -0.5430 N   0  0  0  0  0  0  0  0  0  0  0  0
   -0.2194    2.8048   -0.6398 C   0  0  0  0  0  0  0  0  0  0  0  0
    0.2540    0.4747   -0.3384 C   0  0  0  0  0  0  0  0  0  0  0  0
    1.5376    0.7863   -0.2235 N   0  0  0  0  0  0  0  0  0  0  0  0
  1  2  1  0
  2  3  1  0
  3  4  1  1
  3  5  1  0
  5  6  1  0
  6  7  2  0
  6  8  1  0
  8  9  1  0
  9 10  1  0
 10 11  1  0
 11 12  1  0
 12 13  1  0
 12 14  2  0
 16 15  1  1
 16 17  1  0
 17 18  1  0
 18 19  1  0
 19 20  2  0
 20 21  1  0
 21 22  2  0
 16 23  1  0
 23 24  1  0
 24 25  2  0
 25 26  1  0
 26 27  2  0
 27 28  1  0
 28 29  2  0
 29 30  1  0
 30 31  1  0
 31 32  2  0
 32 33  1  0
 33 34  2  0
 34 35  1  0
 34 36  1  0
 36 37  2  0
 37 38  1  0
 29 39  1  0
 39 40  2  0
 39 41  1  0
 41 42  1  0
 41 43  1  0
 43 44  2  0
 22 18  1  0
 44 24  1  0
 43 27  1  0
 37 31  1  0
M  END

