
     RDKit          3D

 43 46  0  0  0  0  0  0  0  0999 V2000
    3.8239   -1.9152    0.6693 C   0  0  0  0  0  0  0  0  0  0  0  0
    4.2805   -1.8070   -0.9201 C   0  0  2  0  0  0  0  0  0  0  0  0
    5.8412   -1.4109   -0.5662 C   0  0  0  0  0  0  0  0  0  0  0  0
    5.8349   -0.2130    0.1865 N   0  0  0  0  0  0  0  0  0  0  0  0
    5.8941    1.0135   -0.3417 N   0  0  0  0  0  0  0  0  0  0  0  0
    5.8701    1.9379    0.6191 C   0  0  0  0  0  0  0  0  0  0  0  0
    5.7924    1.2255    1.7816 N   0  0  0  0  0  0  0  0  0  0  0  0
    5.7729   -0.0644    1.4919 N   0  0  0  0  0  0  0  0  0  0  0  0
    3.7843   -0.3183   -1.0738 N   0  0  0  0  0  0  0  0  0  0  0  0
    2.3930   -0.1503   -0.8250 C   0  0  0  0  0  0  0  0  0  0  0  0
    1.8102    1.0656   -0.9151 N   0  0  0  0  0  0  0  0  0  0  0  0
    0.5005    1.2649   -0.6879 C   0  0  0  0  0  0  0  0  0  0  0  0
   -0.3037    0.1987   -0.3468 C   0  0  0  0  0  0  0  0  0  0  0  0
   -1.6488    0.3068   -0.0971 C   0  0  0  0  0  0  0  0  0  0  0  0
   -2.3490   -0.8524    0.2391 C   0  0  0  0  0  0  0  0  0  0  0  0
   -3.7099   -0.8378    0.5078 O   0  0  0  0  0  0  0  0  0  0  0  0
   -4.4414    0.3417    0.4535 C   0  0  0  0  0  0  0  0  0  0  0  0
   -5.1192    0.8381    1.5574 C   0  0  0  0  0  0  0  0  0  0  0  0
   -5.8300    2.0164    1.4426 C   0  0  0  0  0  0  0  0  0  0  0  0
   -5.8959    2.7296    0.2632 C   0  0  0  0  0  0  0  0  0  0  0  0
   -6.6004    3.8842    0.1751 F   0  0  0  0  0  0  0  0  0  0  0  0
   -5.2085    2.2056   -0.8162 C   0  0  0  0  0  0  0  0  0  0  0  0
   -4.4847    1.0275   -0.7415 C   0  0  0  0  0  0  0  0  0  0  0  0
   -3.8141    0.5244   -1.8103 F   0  0  0  0  0  0  0  0  0  0  0  0
   -1.7009   -2.0552    0.3140 C   0  0  0  0  0  0  0  0  0  0  0  0
   -2.2932   -3.1433    0.6166 O   0  0  0  0  0  0  0  0  0  0  0  0
   -0.3851   -2.1558    0.0688 N   0  0  0  0  0  0  0  0  0  0  0  0
    0.2996   -3.4517    0.1522 C   0  0  0  0  0  0  0  0  0  0  0  0
    0.2824   -1.0429   -0.2530 C   0  0  0  0  0  0  0  0  0  0  0  0
    1.6046   -1.1622   -0.4963 N   0  0  0  0  0  0  0  0  0  0  0  0
    3.8212    1.6205   -0.6175 O   0  0  0  0  0  1  0  0  0  0  0  0
    3.6389    0.3396   -0.1400 C   0  0  0  0  0  0  0  0  0  0  0  0
    4.6065   -0.3923    0.1841 O   0  0  0  0  0  0  0  0  0  0  0  0
    2.2587   -0.1777   -0.0102 C   0  0  0  0  0  0  0  0  0  0  0  0
    1.5870    0.6376    1.0928 C   0  0  0  0  0  0  0  0  0  0  0  0
    0.1808    0.0687    1.2038 C   0  0  0  0  0  0  0  0  0  0  0  0
   -0.5873    0.1533   -0.0479 C   0  0  0  0  0  0  0  0  0  0  0  0
   -0.0904    0.6830   -1.0664 O   0  0  0  0  0  0  0  0  0  0  0  0
   -1.8958   -0.3695   -0.1107 N   0  0  0  0  0  0  0  0  0  0  0  0
   -2.7675   -0.3737   -1.2682 C   0  0  0  0  0  0  0  0  0  0  0  0
   -4.1457   -0.7089   -0.7356 C   0  0  0  0  0  0  0  0  0  0  0  0
   -4.0130   -0.4814    0.7506 C   0  0  0  0  0  0  0  0  0  0  0  0
   -2.5935   -0.9992    1.0021 C   0  0  0  0  0  0  0  0  0  0  0  0
  2  1  1  1
  2  3  1  0
  3  4  1  0
  4  5  1  0
  5  6  2  0
  6  7  1  0
  7  8  2  0
  2  9  1  0
  9 10  1  0
 10 11  2  0
 11 12  1  0
 12 13  2  0
 13 14  1  0
 14 15  2  0
 15 16  1  0
 16 17  1  0
 17 18  2  0
 18 19  1  0
 19 20  2  0
 20 21  1  0
 20 22  1  0
 22 23  2  0
 23 24  1  0
 15 25  1  0
 25 26  2  0
 25 27  1  0
 27 28  1  0
 27 29  1  0
 29 30  2  0
 31 32  1  0
 32 33  2  0
 32 34  1  0
 34 35  1  0
 35 36  1  0
 36 37  1  0
 37 38  2  0
 37 39  1  0
 39 40  1  0
 40 41  1  0
 41 42  1  0
 42 43  1  0
  8  4  1  0
 30 10  1  0
 43 39  1  0
 29 13  1  0
 23 17  1  0
M  RAD  1  31   2
M  END

