
     RDKit          3D

 38 40  0  0  0  0  0  0  0  0999 V2000
    2.8537    0.9555   -0.3197 C   0  0  0  0  0  0  0  0  0  0  0  0
    1.8011   -0.0809   -0.1894 C   0  0  0  0  0  0  0  0  0  0  0  0
    2.0367   -1.2240    0.2739 O   0  0  0  0  0  0  0  0  0  0  0  0
    0.4942    0.1797   -0.5818 N   0  0  0  0  0  0  0  0  0  0  0  0
   -0.6238   -0.7232   -0.5143 C   0  0  0  0  0  0  0  0  0  0  0  0
   -1.8571    0.2185   -1.1338 C   0  0  1  0  0  0  0  0  0  0  0  0
   -3.0177   -0.6110   -0.2312 C   0  0  0  0  0  0  0  0  0  0  0  0
   -1.6871    1.2853   -0.0137 O   0  0  0  0  0  0  0  0  0  0  0  0
    5.9727    0.8334   -1.6953 C   0  0  0  0  0  0  0  0  0  0  0  0
    4.3185    0.8467   -1.8050 C   0  0  2  0  0  0  0  0  0  0  0  0
    4.1396    2.0095   -0.6486 C   0  0  0  0  0  0  0  0  0  0  0  0
    4.6999    1.5384    0.5586 N   0  0  0  0  0  0  0  0  0  0  0  0
    5.9393    1.6401    1.0504 N   0  0  0  0  0  0  0  0  0  0  0  0
    6.0121    1.0321    2.2486 C   0  0  0  0  0  0  0  0  0  0  0  0
    4.7979    0.5496    2.4959 N   0  0  0  0  0  0  0  0  0  0  0  0
    4.0312    0.8560    1.4884 N   0  0  0  0  0  0  0  0  0  0  0  0
    4.1386   -0.3652   -0.8133 N   0  0  0  0  0  0  0  0  0  0  0  0
    2.8199   -0.7682   -0.5584 C   0  0  0  0  0  0  0  0  0  0  0  0
    2.5910   -1.7979    0.2796 N   0  0  0  0  0  0  0  0  0  0  0  0
    1.3528   -2.2335    0.5663 C   0  0  0  0  0  0  0  0  0  0  0  0
    0.3026   -1.5755   -0.0405 C   0  0  0  0  0  0  0  0  0  0  0  0
   -1.0173   -1.9364    0.1795 C   0  0  0  0  0  0  0  0  0  0  0  0
   -2.0167   -1.2332   -0.4616 C   0  0  0  0  0  0  0  0  0  0  0  0
   -3.3203   -1.5984   -0.2371 O   0  0  0  0  0  0  0  0  0  0  0  0
   -4.2977   -0.8021    0.2903 C   0  0  0  0  0  0  0  0  0  0  0  0
   -5.4473   -0.5164   -0.4266 C   0  0  0  0  0  0  0  0  0  0  0  0
   -6.4243    0.3010    0.1447 C   0  0  0  0  0  0  0  0  0  0  0  0
   -6.2833    0.8380    1.4075 C   0  0  0  0  0  0  0  0  0  0  0  0
   -7.2768    1.6187    1.8844 F   0  0  0  0  0  0  0  0  0  0  0  0
   -5.1368    0.5519    2.1200 C   0  0  0  0  0  0  0  0  0  0  0  0
   -4.1537   -0.2670    1.5527 C   0  0  0  0  0  0  0  0  0  0  0  0
   -3.0166   -0.5680    2.2237 F   0  0  0  0  0  0  0  0  0  0  0  0
   -1.7400   -0.1840   -1.3130 C   0  0  0  0  0  0  0  0  0  0  0  0
   -2.6671    0.4615   -1.9021 O   0  0  0  0  0  0  0  0  0  0  0  0
   -0.4569    0.1525   -1.5150 N   0  0  0  0  0  0  0  0  0  0  0  0
   -0.1917    1.2628   -2.4176 C   0  0  0  0  0  0  0  0  0  0  0  0
    0.5314   -0.5204   -0.8996 C   0  0  0  0  0  0  0  0  0  0  0  0
    1.7990   -0.1259   -1.1505 N   0  0  0  0  0  0  0  0  0  0  0  0
  1  2  1  0
  2  3  2  0
  2  4  1  0
  4  5  1  0
  5  6  1  0
  6  7  1  1
  6  8  1  0
 10  9  1  1
 10 11  1  0
 11 12  1  0
 12 13  1  0
 13 14  2  0
 14 15  1  0
 15 16  2  0
 10 17  1  0
 17 18  1  0
 18 19  2  0
 19 20  1  0
 20 21  2  0
 21 22  1  0
 22 23  2  0
 23 24  1  0
 24 25  1  0
 25 26  2  0
 26 27  1  0
 27 28  2  0
 28 29  1  0
 28 30  1  0
 30 31  2  0
 31 32  1  0
 23 33  1  0
 33 34  2  0
 33 35  1  0
 35 36  1  0
 35 37  1  0
 37 38  2  0
 16 12  1  0
 38 18  1  0
 37 21  1  0
 31 25  1  0
M  END

