
     RDKit          3D

 43 46  0  0  0  0  0  0  0  0999 V2000
   -4.5768   -2.0666    0.5522 C   0  0  0  0  0  0  0  0  0  0  0  0
   -4.8552   -0.4813    0.9619 C   0  0  2  0  0  0  0  0  0  0  0  0
   -6.1233   -0.3577   -0.1324 C   0  0  0  0  0  0  0  0  0  0  0  0
   -6.5017    1.0370    0.1075 N   0  0  0  0  0  0  0  0  0  0  0  0
   -7.3781    1.4920    0.9795 N   0  0  0  0  0  0  0  0  0  0  0  0
   -7.4195    2.8147    0.8723 C   0  0  0  0  0  0  0  0  0  0  0  0
   -6.5510    3.1745   -0.0842 N   0  0  0  0  0  0  0  0  0  0  0  0
   -5.9849    2.0535   -0.5531 N   0  0  0  0  0  0  0  0  0  0  0  0
   -3.8068    0.0643   -0.0884 N   0  0  0  0  0  0  0  0  0  0  0  0
   -2.4825   -0.4021    0.1202 C   0  0  0  0  0  0  0  0  0  0  0  0
   -2.2106   -1.2223    1.1256 N   0  0  0  0  0  0  0  0  0  0  0  0
   -0.9526   -1.6647    1.3229 C   0  0  0  0  0  0  0  0  0  0  0  0
    0.0514   -1.2478    0.4574 C   0  0  0  0  0  0  0  0  0  0  0  0
    1.3637   -1.6589    0.5963 C   0  0  0  0  0  0  0  0  0  0  0  0
    2.3578   -1.2376   -0.2718 C   0  0  0  0  0  0  0  0  0  0  0  0
    3.6405   -1.6785   -0.0842 O   0  0  0  0  0  0  0  0  0  0  0  0
    4.7237   -0.8455    0.1540 C   0  0  0  0  0  0  0  0  0  0  0  0
    5.7571   -0.8951   -0.7606 C   0  0  0  0  0  0  0  0  0  0  0  0
    6.8915   -0.1275   -0.6530 C   0  0  0  0  0  0  0  0  0  0  0  0
    6.9825    0.7254    0.4259 C   0  0  0  0  0  0  0  0  0  0  0  0
    8.0886    1.4922    0.5559 F   0  0  0  0  0  0  0  0  0  0  0  0
    5.9586    0.7912    1.3547 C   0  0  0  0  0  0  0  0  0  0  0  0
    4.8342    0.0024    1.2101 C   0  0  0  0  0  0  0  0  0  0  0  0
    3.8397    0.0636    2.1085 F   0  0  0  0  0  0  0  0  0  0  0  0
    2.0280   -0.3834   -1.3044 C   0  0  0  0  0  0  0  0  0  0  0  0
    2.9045    0.0317   -2.1278 O   0  0  0  0  0  0  0  0  0  0  0  0
    0.7436    0.0025   -1.4185 N   0  0  0  0  0  0  0  0  0  0  0  0
    0.4123    0.9008   -2.5091 C   0  0  0  0  0  0  0  0  0  0  0  0
   -0.2306   -0.3924   -0.5915 C   0  0  0  0  0  0  0  0  0  0  0  0
   -1.5039    0.0152   -0.7378 N   0  0  0  0  0  0  0  0  0  0  0  0
    4.4454   -0.7512   -0.3880 N   0  0  0  0  0  4  0  0  0  0  0  0
    3.7305    0.4917   -0.4394 C   0  0  0  0  0  0  0  0  0  0  0  0
    2.4457    0.3487   -1.2389 C   0  0  0  0  0  0  0  0  0  0  0  0
    1.6873    1.6310   -1.3042 C   0  0  0  0  0  0  0  0  0  0  0  0
    1.2855    2.1515    0.0548 C   0  0  0  0  0  0  0  0  0  0  0  0
    0.4067    1.1804    0.7911 C   0  0  0  0  0  0  0  0  0  0  0  0
   -0.8511    0.8956    0.0472 C   0  0  0  0  0  0  0  0  0  0  0  0
   -1.0040    1.4831   -1.0550 O   0  0  0  0  0  0  0  0  0  0  0  0
   -1.8418    0.0182    0.5236 N   0  0  0  0  0  0  0  0  0  0  0  0
   -1.8081   -0.7208    1.7579 C   0  0  0  0  0  0  0  0  0  0  0  0
   -2.2603   -2.1066    1.2865 C   0  0  0  0  0  0  0  0  0  0  0  0
   -3.1551   -1.8149    0.0911 C   0  0  0  0  0  0  0  0  0  0  0  0
   -3.0807   -0.3129   -0.1269 C   0  0  0  0  0  0  0  0  0  0  0  0
  2  1  1  6
  2  3  1  0
  3  4  1  0
  4  5  1  0
  5  6  2  0
  6  7  1  0
  7  8  2  0
  2  9  1  0
  9 10  1  0
 10 11  2  0
 11 12  1  0
 12 13  2  0
 13 14  1  0
 14 15  2  0
 15 16  1  0
 16 17  1  0
 17 18  2  0
 18 19  1  0
 19 20  2  0
 20 21  1  0
 20 22  1  0
 22 23  2  0
 23 24  1  0
 15 25  1  0
 25 26  2  0
 25 27  1  0
 27 28  1  0
 27 29  1  0
 29 30  2  0
 31 32  1  0
 32 33  1  0
 33 34  1  0
 34 35  1  0
 35 36  1  0
 36 37  1  0
 37 38  2  0
 37 39  1  0
 39 40  1  0
 40 41  1  0
 41 42  1  0
 42 43  1  0
  8  4  1  0
 30 10  1  0
 43 39  1  0
 29 13  1  0
 23 17  1  0
M  CHG  1  31   1
M  END

