
     RDKit          3D

 45 48  0  0  0  0  0  0  0  0999 V2000
   -5.5214    1.8092   -0.0821 C   0  0  0  0  0  0  0  0  0  0  0  0
   -5.2298    0.8126   -1.5565 S   0  0  0  0  0  0  0  0  0  0  0  0
   -3.5392    0.1586   -1.5560 C   0  0  0  0  0  0  0  0  0  0  0  0
   -2.5989    1.3641   -1.6974 C   0  0  0  0  0  0  0  0  0  0  0  0
   -1.2065    0.8177   -1.6921 C   0  0  0  0  0  0  0  0  0  0  0  0
   -0.9881    0.1079   -0.4060 C   0  0  0  0  0  0  0  0  0  0  0  0
   -1.8958    0.0514    0.4601 O   0  0  0  0  0  0  0  0  0  0  0  0
    0.2565   -0.5265   -0.1220 N   0  0  0  0  0  0  0  0  0  0  0  0
    0.5012   -1.2301    1.1319 C   0  0  0  0  0  0  0  0  0  0  0  0
    1.8831   -1.7833    1.1328 C   0  0  0  0  0  0  0  0  0  0  0  0
    2.8486   -0.6683    0.9890 C   0  0  0  0  0  0  0  0  0  0  0  0
    4.2155   -0.8294    0.9527 C   0  0  0  0  0  0  0  0  0  0  0  0
    4.8022    0.3802    0.8142 N   0  0  0  0  0  0  0  0  0  0  0  0
    3.8302    1.3060    0.7617 C   0  0  0  0  0  0  0  0  0  0  0  0
    2.6423    0.6511    0.8696 N   0  0  0  0  0  0  0  0  0  0  0  0
    3.6911   -1.8253   -0.6329 C   0  0  0  0  0  0  0  0  0  0  0  0
    4.5003   -0.7522   -1.6071 C   0  0  2  0  0  0  0  0  0  0  0  0
    5.9573   -1.0975   -0.9052 C   0  0  0  0  0  0  0  0  0  0  0  0
    5.8939   -0.8002    0.4656 N   0  0  0  0  0  0  0  0  0  0  0  0
    5.5122   -1.6865    1.3967 N   0  0  0  0  0  0  0  0  0  0  0  0
    5.5395   -1.1547    2.6106 C   0  0  0  0  0  0  0  0  0  0  0  0
    5.9521    0.1134    2.4516 N   0  0  0  0  0  0  0  0  0  0  0  0
    6.1556    0.2942    1.1575 N   0  0  0  0  0  0  0  0  0  0  0  0
    4.1522    0.4908   -0.6878 N   0  0  0  0  0  0  0  0  0  0  0  0
    2.7957    0.7600   -0.5142 C   0  0  0  0  0  0  0  0  0  0  0  0
    2.4638    1.8057    0.2583 N   0  0  0  0  0  0  0  0  0  0  0  0
    1.2075    2.1643    0.5005 C   0  0  0  0  0  0  0  0  0  0  0  0
    0.1905    1.4137   -0.0790 C   0  0  0  0  0  0  0  0  0  0  0  0
   -1.0992    1.8123    0.1923 C   0  0  0  0  0  0  0  0  0  0  0  0
   -2.1088    1.0474   -0.3977 C   0  0  0  0  0  0  0  0  0  0  0  0
   -3.4117    1.3934   -0.1658 O   0  0  0  0  0  0  0  0  0  0  0  0
   -4.3271    0.5228    0.4444 C   0  0  0  0  0  0  0  0  0  0  0  0
   -3.9682   -0.7412    0.8500 C   0  0  0  0  0  0  0  0  0  0  0  0
   -4.8919   -1.5890    1.4535 C   0  0  0  0  0  0  0  0  0  0  0  0
   -6.1993   -1.1706    1.6576 C   0  0  0  0  0  0  0  0  0  0  0  0
   -7.0906   -2.0059    2.2468 F   0  0  0  0  0  0  0  0  0  0  0  0
   -6.5513    0.0989    1.2478 C   0  0  0  0  0  0  0  0  0  0  0  0
   -5.6189    0.9268    0.6499 C   0  0  0  0  0  0  0  0  0  0  0  0
   -5.9507    2.1878    0.2378 F   0  0  0  0  0  0  0  0  0  0  0  0
   -1.7554   -0.0146   -1.1819 C   0  0  0  0  0  0  0  0  0  0  0  0
   -2.6922   -0.6923   -1.7055 O   0  0  0  0  0  0  0  0  0  0  0  0
   -0.4873   -0.3726   -1.4235 N   0  0  0  0  0  0  0  0  0  0  0  0
   -0.1814   -1.5146   -2.2683 C   0  0  0  0  0  0  0  0  0  0  0  0
    0.5073    0.3466   -0.8678 C   0  0  0  0  0  0  0  0  0  0  0  0
    1.8150    0.0392   -1.0708 N   0  0  0  0  0  0  0  0  0  0  0  0
  1  2  1  0
  2  3  1  0
  3  4  1  0
  4  5  1  0
  5  6  1  0
  6  7  2  0
  6  8  1  0
  8  9  1  0
  9 10  1  0
 10 11  1  0
 11 12  2  0
 12 13  1  0
 13 14  1  0
 14 15  2  0
 17 16  1  1
 17 18  1  0
 18 19  1  0
 19 20  1  0
 20 21  2  0
 21 22  1  0
 22 23  2  0
 17 24  1  0
 24 25  1  0
 25 26  2  0
 26 27  1  0
 27 28  2  0
 28 29  1  0
 29 30  2  0
 30 31  1  0
 31 32  1  0
 32 33  2  0
 33 34  1  0
 34 35  2  0
 35 36  1  0
 35 37  1  0
 37 38  2  0
 38 39  1  0
 30 40  1  0
 40 41  2  0
 40 42  1  0
 42 43  1  0
 42 44  1  0
 44 45  2  0
 15 11  1  0
 23 19  1  0
 45 25  1  0
 44 28  1  0
 38 32  1  0
M  END

