
     RDKit          3D

 43 45  0  0  0  0  0  0  0  0999 V2000
    3.5626   -0.2790    1.4182 C   0  0  0  0  0  0  0  0  0  0  0  0
    3.7926   -0.1193   -0.0691 C   0  0  0  0  0  0  0  0  0  0  0  0
    5.0893    0.6115   -0.3111 C   0  0  0  0  0  0  0  0  0  0  0  0
    2.6083    0.6814   -0.6172 C   0  0  0  0  0  0  0  0  0  0  0  0
    1.3859   -0.1176   -0.3257 C   0  0  0  0  0  0  0  0  0  0  0  0
    0.1283    0.4638   -0.7728 C   0  0  0  0  0  0  0  0  0  0  0  0
    0.0856    1.5644   -1.3622 O   0  0  0  0  0  0  0  0  0  0  0  0
   -1.0835   -0.2224   -0.5417 N   0  0  0  0  0  0  0  0  0  0  0  0
   -2.3496    0.3463   -0.9893 C   0  0  0  0  0  0  0  0  0  0  0  0
   -3.3845   -0.6924   -0.5523 C   0  0  0  0  0  0  0  0  0  0  0  0
   -3.3484   -0.8191    0.9153 C   0  0  0  0  0  0  0  0  0  0  0  0
   -2.1989   -1.3633    1.5172 O   0  0  0  0  0  1  0  0  0  0  0  0
   -4.2877   -0.4679    1.6907 O   0  0  0  0  0  0  0  0  0  0  0  0
   -4.2623   -0.3032    0.6923 C   0  0  0  0  0  0  0  0  0  0  0  0
   -4.7379    0.6625   -0.5936 C   0  0  2  0  0  0  0  0  0  0  0  0
   -5.7146   -0.5280   -1.2467 C   0  0  0  0  0  0  0  0  0  0  0  0
   -6.6866   -0.8150   -0.2238 N   0  0  0  0  0  0  0  0  0  0  0  0
   -7.8487   -0.2633   -0.0297 N   0  0  0  0  0  0  0  0  0  0  0  0
   -8.3858   -0.8668    1.0471 C   0  0  0  0  0  0  0  0  0  0  0  0
   -7.5324   -1.7977    1.5090 N   0  0  0  0  0  0  0  0  0  0  0  0
   -6.4888   -1.7441    0.7034 N   0  0  0  0  0  0  0  0  0  0  0  0
   -3.5275    0.2383   -1.5061 N   0  0  0  0  0  0  0  0  0  0  0  0
   -2.2233    0.5095   -1.0294 C   0  0  0  0  0  0  0  0  0  0  0  0
   -2.1244    1.1087    0.1669 N   0  0  0  0  0  0  0  0  0  0  0  0
   -0.9679    1.4328    0.7573 C   0  0  0  0  0  0  0  0  0  0  0  0
    0.2044    1.1322    0.0945 C   0  0  0  0  0  0  0  0  0  0  0  0
    1.4287    1.4413    0.6513 C   0  0  0  0  0  0  0  0  0  0  0  0
    2.5492    1.1228   -0.0449 C   0  0  0  0  0  0  0  0  0  0  0  0
    3.8194    1.4075    0.4608 O   0  0  0  0  0  0  0  0  0  0  0  0
    4.7617    0.4242    0.7039 C   0  0  0  0  0  0  0  0  0  0  0  0
    5.9716    0.4369    0.0673 C   0  0  0  0  0  0  0  0  0  0  0  0
    6.9095   -0.5696    0.3299 C   0  0  0  0  0  0  0  0  0  0  0  0
    6.6611   -1.5920    1.2191 C   0  0  0  0  0  0  0  0  0  0  0  0
    7.6015   -2.5524    1.4462 F   0  0  0  0  0  0  0  0  0  0  0  0
    5.4369   -1.5879    1.8506 C   0  0  0  0  0  0  0  0  0  0  0  0
    4.4979   -0.5907    1.5955 C   0  0  0  0  0  0  0  0  0  0  0  0
    3.3221   -0.6280    2.2326 F   0  0  0  0  0  0  0  0  0  0  0  0
    2.4427    0.5080   -1.2720 C   0  0  0  0  0  0  0  0  0  0  0  0
    3.5102    0.2160   -1.9122 O   0  0  0  0  0  0  0  0  0  0  0  0
    1.2371    0.2232   -1.7811 N   0  0  0  0  0  0  0  0  0  0  0  0
    1.1841   -0.4228   -3.0736 C   0  0  0  0  0  0  0  0  0  0  0  0
    0.0779    0.5132   -1.1402 C   0  0  0  0  0  0  0  0  0  0  0  0
   -1.1160    0.2162   -1.6744 N   0  0  0  0  0  0  0  0  0  0  0  0
  1  2  1  0
  2  3  1  0
  2  4  1  0
  4  5  1  0
  5  6  1  0
  6  7  2  0
  6  8  1  0
  8  9  1  0
  9 10  1  0
 10 11  1  0
 11 12  1  0
 11 13  2  0
 15 14  1  1
 15 16  1  0
 16 17  1  0
 17 18  1  0
 18 19  2  0
 19 20  1  0
 20 21  2  0
 15 22  1  0
 22 23  1  0
 23 24  2  0
 24 25  1  0
 25 26  2  0
 26 27  1  0
 27 28  2  0
 28 29  1  0
 29 30  1  0
 30 31  2  0
 31 32  1  0
 32 33  2  0
 33 34  1  0
 33 35  1  0
 35 36  2  0
 36 37  1  0
 28 38  1  0
 38 39  2  0
 38 40  1  0
 40 41  1  0
 40 42  1  0
 42 43  2  0
 21 17  1  0
 43 23  1  0
 42 26  1  0
 36 30  1  0
M  RAD  1  12   2
M  END

