
     RDKit          3D

 41 44  0  0  0  0  0  0  0  0999 V2000
    4.2073   -2.4612   -0.9046 C   0  0  0  0  0  0  0  0  0  0  0  0
    4.6158   -0.8741   -1.1340 C   0  0  2  0  0  0  0  0  0  0  0  0
    5.9101   -0.9898   -0.0822 C   0  0  0  0  0  0  0  0  0  0  0  0
    6.4846    0.3438   -0.0943 N   0  0  0  0  0  0  0  0  0  0  0  0
    6.2430    1.3935    0.6441 N   0  0  0  0  0  0  0  0  0  0  0  0
    7.0287    2.4313    0.2698 C   0  0  0  0  0  0  0  0  0  0  0  0
    7.7767    1.9676   -0.7476 N   0  0  0  0  0  0  0  0  0  0  0  0
    7.4150    0.6988   -0.9353 N   0  0  0  0  0  0  0  0  0  0  0  0
    3.6362   -0.3746    0.0038 N   0  0  0  0  0  0  0  0  0  0  0  0
    2.2820   -0.7217   -0.2612 C   0  0  0  0  0  0  0  0  0  0  0  0
    1.8544   -1.3863   -1.3281 N   0  0  0  0  0  0  0  0  0  0  0  0
    0.5595   -1.6913   -1.5337 C   0  0  0  0  0  0  0  0  0  0  0  0
   -0.3781   -1.3026   -0.6028 C   0  0  0  0  0  0  0  0  0  0  0  0
   -1.7219   -1.5833   -0.7527 C   0  0  0  0  0  0  0  0  0  0  0  0
   -2.5961   -1.1612    0.2211 C   0  0  0  0  0  0  0  0  0  0  0  0
   -3.9607   -1.4029    0.1455 O   0  0  0  0  0  0  0  0  0  0  0  0
   -4.8012   -0.2862    0.1278 C   0  0  0  0  0  0  0  0  0  0  0  0
   -5.7449   -0.1236    1.1244 C   0  0  0  0  0  0  0  0  0  0  0  0
   -6.5549    0.9978    1.0651 C   0  0  0  0  0  0  0  0  0  0  0  0
   -6.4298    1.9311    0.0433 C   0  0  0  0  0  0  0  0  0  0  0  0
   -7.2571    3.0277    0.0281 F   0  0  0  0  0  0  0  0  0  0  0  0
   -5.4797    1.7444   -0.9387 C   0  0  0  0  0  0  0  0  0  0  0  0
   -4.6671    0.6290   -0.8881 C   0  0  0  0  0  0  0  0  0  0  0  0
   -3.7298    0.4170   -1.8310 F   0  0  0  0  0  0  0  0  0  0  0  0
   -2.1263   -0.4766    1.3125 C   0  0  0  0  0  0  0  0  0  0  0  0
   -2.9159   -0.0809    2.2177 O   0  0  0  0  0  0  0  0  0  0  0  0
   -0.8195   -0.2214    1.4268 N   0  0  0  0  0  0  0  0  0  0  0  0
   -0.2827    0.5095    2.5831 C   0  0  0  0  0  0  0  0  0  0  0  0
    0.0703   -0.6143    0.5008 C   0  0  0  0  0  0  0  0  0  0  0  0
    1.3821   -0.3397    0.6483 N   0  0  0  0  0  0  0  0  0  0  0  0
    1.1251    0.5183   -1.4757 O   0  0  0  0  0  0  0  0  0  0  0  0
    0.3491    0.3716   -0.5762 C   0  0  0  0  0  0  0  0  0  0  0  0
    0.5307    0.4987    0.8084 N   0  0  0  0  0  0  0  0  0  0  0  0
    1.8312    1.0530    1.1274 C   0  0  0  0  0  0  0  0  0  0  0  0
    3.0116    0.4806    0.4044 C   0  0  0  0  0  0  0  0  0  0  0  0
    3.2351   -0.8441    0.4495 O   0  0  0  0  0  0  0  0  0  0  0  0
   -1.1280   -0.0684   -1.0842 C   0  0  2  0  0  0  0  0  0  0  0  0
   -1.9805    0.8734   -0.0417 C   0  0  0  0  0  0  0  0  0  0  0  0
   -3.1574   -0.0544    0.1881 C   0  0  0  0  0  0  0  0  0  0  0  0
   -2.6280   -1.4449   -0.0038 C   0  0  0  0  0  0  0  0  0  0  0  0
   -1.1889   -1.3838   -0.1821 N   0  0  0  0  0  0  0  0  0  0  0  0
  2  1  1  1
  2  3  1  0
  3  4  1  0
  4  5  1  0
  5  6  2  0
  6  7  1  0
  7  8  2  0
  2  9  1  0
  9 10  1  0
 10 11  2  0
 11 12  1  0
 12 13  2  0
 13 14  1  0
 14 15  2  0
 15 16  1  0
 16 17  1  0
 17 18  2  0
 18 19  1  0
 19 20  2  0
 20 21  1  0
 20 22  1  0
 22 23  2  0
 23 24  1  0
 15 25  1  0
 25 26  2  0
 25 27  1  0
 27 28  1  0
 27 29  1  0
 29 30  2  0
 31 32  2  0
 32 33  1  0
 33 34  1  0
 34 35  1  0
 35 36  1  0
 37 32  1  1
 37 38  1  0
 38 39  1  0
 39 40  1  0
 40 41  1  0
  8  4  1  0
 30 10  1  0
 41 37  1  0
 29 13  1  0
 23 17  1  0
M  END

