
     RDKit          3D

 42 44  0  0  0  0  0  0  0  0999 V2000
    2.5784    0.6653    1.8876 C   0  0  0  0  0  0  0  0  0  0  0  0
    3.4254   -0.3814    0.9112 C   0  0  1  0  0  0  0  0  0  0  0  0
    2.5128   -1.5726    1.1751 O   0  0  0  0  0  0  0  0  0  0  0  0
    2.6858    0.1206   -0.4735 C   0  0  0  0  0  0  0  0  0  0  0  0
    1.2647   -0.0818   -0.3671 C   0  0  0  0  0  0  0  0  0  0  0  0
    0.7991   -0.5021    0.7173 O   0  0  0  0  0  0  0  0  0  0  0  0
    0.3080    0.1505   -1.3889 N   0  0  0  0  0  0  0  0  0  0  0  0
   -1.0824   -0.0731   -1.2093 C   0  0  0  0  0  0  0  0  0  0  0  0
   -1.7219    0.7271   -0.1228 C   0  0  0  0  0  0  0  0  0  0  0  0
   -3.1627    0.3813   -0.0634 C   0  0  0  0  0  0  0  0  0  0  0  0
   -3.9693    1.0222    0.8973 O   0  0  0  0  0  1  0  0  0  0  0  0
   -3.6378   -0.4561   -0.8478 O   0  0  0  0  0  0  0  0  0  0  0  0
    3.9074   -1.3384    1.5562 C   0  0  0  0  0  0  0  0  0  0  0  0
    4.7493   -1.1824    0.1173 C   0  0  2  0  0  0  0  0  0  0  0  0
    5.8263   -0.0980    0.8064 C   0  0  0  0  0  0  0  0  0  0  0  0
    6.3923   -0.9299    1.8794 N   0  0  0  0  0  0  0  0  0  0  0  0
    7.4629   -1.6910    1.7261 N   0  0  0  0  0  0  0  0  0  0  0  0
    7.6808   -2.2977    2.9090 C   0  0  0  0  0  0  0  0  0  0  0  0
    6.7367   -1.9039    3.7899 N   0  0  0  0  0  0  0  0  0  0  0  0
    5.9671   -1.0631    3.1108 N   0  0  0  0  0  0  0  0  0  0  0  0
    3.7574   -0.0806   -0.4192 N   0  0  0  0  0  0  0  0  0  0  0  0
    2.4081   -0.4451   -0.5523 C   0  0  0  0  0  0  0  0  0  0  0  0
    1.9088   -1.6530   -0.2579 N   0  0  0  0  0  0  0  0  0  0  0  0
    0.5814   -1.9307   -0.4148 C   0  0  0  0  0  0  0  0  0  0  0  0
   -0.2747   -0.9592   -0.8845 C   0  0  0  0  0  0  0  0  0  0  0  0
   -1.6246   -1.1612   -1.0698 C   0  0  0  0  0  0  0  0  0  0  0  0
   -2.4431   -0.1724   -1.5381 C   0  0  0  0  0  0  0  0  0  0  0  0
   -3.8177   -0.3523   -1.7350 O   0  0  0  0  0  0  0  0  0  0  0  0
   -4.7623    0.4182   -1.0668 C   0  0  0  0  0  0  0  0  0  0  0  0
   -5.6369    1.1871   -1.8326 C   0  0  0  0  0  0  0  0  0  0  0  0
   -6.5794    1.9573   -1.1982 C   0  0  0  0  0  0  0  0  0  0  0  0
   -6.6831    1.9894    0.1831 C   0  0  0  0  0  0  0  0  0  0  0  0
   -7.6137    2.7493    0.8233 F   0  0  0  0  0  0  0  0  0  0  0  0
   -5.8067    1.2194    0.9415 C   0  0  0  0  0  0  0  0  0  0  0  0
   -4.8520    0.4382    0.3238 C   0  0  0  0  0  0  0  0  0  0  0  0
   -3.9685   -0.3346    1.0023 F   0  0  0  0  0  0  0  0  0  0  0  0
   -1.8950    1.0616   -1.8318 C   0  0  0  0  0  0  0  0  0  0  0  0
   -2.6409    1.9812   -2.2646 O   0  0  0  0  0  0  0  0  0  0  0  0
   -0.5773    1.2603   -1.6515 N   0  0  0  0  0  0  0  0  0  0  0  0
    0.0037    2.5689   -1.9630 C   0  0  0  0  0  0  0  0  0  0  0  0
    0.2382    0.2793   -1.1862 C   0  0  0  0  0  0  0  0  0  0  0  0
    1.5556    0.4834   -1.0076 N   0  0  0  0  0  0  0  0  0  0  0  0
  2  1  1  1
  2  3  1  0
  2  4  1  0
  4  5  1  0
  5  6  2  0
  5  7  1  0
  7  8  1  0
  8  9  1  0
  9 10  1  0
 10 11  1  0
 10 12  2  0
 14 13  1  1
 14 15  1  0
 15 16  1  0
 16 17  1  0
 17 18  2  0
 18 19  1  0
 19 20  2  0
 14 21  1  0
 21 22  1  0
 22 23  2  0
 23 24  1  0
 24 25  2  0
 25 26  1  0
 26 27  2  0
 27 28  1  0
 28 29  1  0
 29 30  2  0
 30 31  1  0
 31 32  2  0
 32 33  1  0
 32 34  1  0
 34 35  2  0
 35 36  1  0
 27 37  1  0
 37 38  2  0
 37 39  1  0
 39 40  1  0
 39 41  1  0
 41 42  2  0
 20 16  1  0
 42 22  1  0
 41 25  1  0
 35 29  1  0
M  RAD  1  11   2
M  END

