
     RDKit          3D

 42 45  0  0  0  0  0  0  0  0999 V2000
    5.2695    0.1448    1.0335 C   0  0  0  0  0  0  0  0  0  0  0  0
    4.1803   -0.3972    0.1164 C   0  0  0  0  0  0  0  0  0  0  0  0
    2.8892    0.0374    0.6427 N   0  0  0  0  0  0  0  0  0  0  0  0
    1.6803   -0.2992    0.0218 C   0  0  0  0  0  0  0  0  0  0  0  0
    1.7201   -1.0032   -1.0290 O   0  0  0  0  0  0  0  0  0  0  0  0
    0.3445    0.1168    0.5160 C   0  0  0  0  0  0  0  0  0  0  0  0
   -0.7715   -0.3838   -0.3416 C   0  0  0  0  0  0  0  0  0  0  0  0
   -2.0551    0.0765    0.2240 C   0  0  0  0  0  0  0  0  0  0  0  0
   -2.7712   -0.6538    1.1563 C   0  0  0  0  0  0  0  0  0  0  0  0
   -3.8711    0.0172    1.4682 N   0  0  0  0  0  0  0  0  0  0  0  0
   -3.8601    1.1528    0.7514 C   0  0  0  0  0  0  0  0  0  0  0  0
   -2.7550    1.1915   -0.0073 N   0  0  0  0  0  0  0  0  0  0  0  0
    2.7344    3.0429    0.7960 C   0  0  0  0  0  0  0  0  0  0  0  0
    4.1108    2.1306    0.9484 C   0  0  2  0  0  0  0  0  0  0  0  0
    3.7128    1.1117   -0.2864 C   0  0  0  0  0  0  0  0  0  0  0  0
    4.8801    0.2283   -0.2590 N   0  0  0  0  0  0  0  0  0  0  0  0
    6.0007    0.4159   -0.9454 N   0  0  0  0  0  0  0  0  0  0  0  0
    6.8761   -0.5795   -0.6959 C   0  0  0  0  0  0  0  0  0  0  0  0
    6.2564   -1.4012    0.1778 N   0  0  0  0  0  0  0  0  0  0  0  0
    5.0510   -0.8850    0.4221 N   0  0  0  0  0  0  0  0  0  0  0  0
    3.5608    1.1926    2.0790 N   0  0  0  0  0  0  0  0  0  0  0  0
    2.3826    0.4799    1.8866 C   0  0  0  0  0  0  0  0  0  0  0  0
    1.8211   -0.3479    2.7667 N   0  0  0  0  0  0  0  0  0  0  0  0
    0.6729   -1.0073    2.5273 C   0  0  0  0  0  0  0  0  0  0  0  0
    0.0353   -0.8339    1.3296 C   0  0  0  0  0  0  0  0  0  0  0  0
   -1.1467   -1.4899    1.0386 C   0  0  0  0  0  0  0  0  0  0  0  0
   -1.7380   -1.2723   -0.1836 C   0  0  0  0  0  0  0  0  0  0  0  0
   -2.9282   -1.9114   -0.5191 O   0  0  0  0  0  0  0  0  0  0  0  0
   -4.0653   -1.1463   -0.8207 C   0  0  0  0  0  0  0  0  0  0  0  0
   -4.7061   -1.2069   -2.0261 C   0  0  0  0  0  0  0  0  0  0  0  0
   -5.8159   -0.4199   -2.2359 C   0  0  0  0  0  0  0  0  0  0  0  0
   -6.3203    0.4422   -1.2689 C   0  0  0  0  0  0  0  0  0  0  0  0
   -7.4202    1.2144   -1.4931 F   0  0  0  0  0  0  0  0  0  0  0  0
   -5.6419    0.4726   -0.0638 C   0  0  0  0  0  0  0  0  0  0  0  0
   -4.5266   -0.3015    0.1822 C   0  0  0  0  0  0  0  0  0  0  0  0
   -3.8697   -0.2555    1.3839 F   0  0  0  0  0  0  0  0  0  0  0  0
   -1.1600   -0.4150   -1.0994 C   0  0  0  0  0  0  0  0  0  0  0  0
   -1.6988   -0.2173   -2.2120 O   0  0  0  0  0  0  0  0  0  0  0  0
   -0.0226    0.2085   -0.8040 N   0  0  0  0  0  0  0  0  0  0  0  0
    0.6404    1.1303   -1.7319 C   0  0  0  0  0  0  0  0  0  0  0  0
    0.5922    0.0214    0.3892 C   0  0  0  0  0  0  0  0  0  0  0  0
    1.7326    0.6301    0.7181 N   0  0  0  0  0  0  0  0  0  0  0  0
  1  2  1  0
  2  3  1  0
  3  4  1  0
  4  5  2  0
  4  6  1  0
  6  7  1  0
  7  8  1  0
  8  9  2  0
  9 10  1  0
 10 11  1  0
 11 12  2  0
 14 13  1  6
 14 15  1  0
 15 16  1  0
 16 17  1  0
 17 18  2  0
 18 19  1  0
 19 20  2  0
 14 21  1  0
 21 22  1  0
 22 23  2  0
 23 24  1  0
 24 25  2  0
 25 26  1  0
 26 27  2  0
 27 28  1  0
 28 29  1  0
 29 30  2  0
 30 31  1  0
 31 32  2  0
 32 33  1  0
 32 34  1  0
 34 35  2  0
 35 36  1  0
 27 37  1  0
 37 38  2  0
 37 39  1  0
 39 40  1  0
 39 41  1  0
 41 42  2  0
 12  8  1  0
 20 16  1  0
 42 22  1  0
 41 25  1  0
 35 29  1  0
M  END

