
     RDKit          3D

 39 41  0  0  0  0  0  0  0  0999 V2000
    3.9159   -0.5620   -0.4178 C   0  0  0  0  0  0  0  0  0  0  0  0
    2.7859    0.2986    0.1130 C   0  0  0  0  0  0  0  0  0  0  0  0
    1.5609   -0.4279   -0.0471 N   0  0  0  0  0  0  0  0  0  0  0  0
    0.3108    0.0878    0.3467 C   0  0  0  0  0  0  0  0  0  0  0  0
    0.2278    1.2107    0.8555 O   0  0  0  0  0  0  0  0  0  0  0  0
   -0.8922   -0.7335    0.1417 C   0  0  0  0  0  0  0  0  0  0  0  0
   -2.1541   -0.0507    0.6113 C   0  0  0  0  0  0  0  0  0  0  0  0
   -3.2958   -1.0193    0.3328 C   0  0  0  0  0  0  0  0  0  0  0  0
   -2.4592    1.1964   -0.1954 C   0  0  0  0  0  0  0  0  0  0  0  0
    5.8498   -2.7625   -1.0694 C   0  0  0  0  0  0  0  0  0  0  0  0
    4.9159   -1.4012   -1.3286 C   0  0  2  0  0  0  0  0  0  0  0  0
    5.7598   -0.5819   -0.2039 C   0  0  0  0  0  0  0  0  0  0  0  0
    5.1195    0.7091   -0.2410 N   0  0  0  0  0  0  0  0  0  0  0  0
    4.1208    1.1895    0.4569 N   0  0  0  0  0  0  0  0  0  0  0  0
    3.9182    2.4460    0.0271 C   0  0  0  0  0  0  0  0  0  0  0  0
    4.8058    2.7221   -0.9398 N   0  0  0  0  0  0  0  0  0  0  0  0
    5.5318    1.6587   -1.0951 N   0  0  0  0  0  0  0  0  0  0  0  0
    3.8297   -1.8809   -0.3411 N   0  0  0  0  0  0  0  0  0  0  0  0
    2.5478   -1.3280   -0.3862 C   0  0  0  0  0  0  0  0  0  0  0  0
    2.0623   -0.4007   -1.2076 N   0  0  0  0  0  0  0  0  0  0  0  0
    0.7925    0.0400   -1.1321 C   0  0  0  0  0  0  0  0  0  0  0  0
   -0.0582   -0.4638   -0.1862 C   0  0  0  0  0  0  0  0  0  0  0  0
   -1.3719   -0.0731   -0.0350 C   0  0  0  0  0  0  0  0  0  0  0  0
   -2.2065   -0.6005    0.9302 C   0  0  0  0  0  0  0  0  0  0  0  0
   -3.5062   -0.2501    1.1203 O   0  0  0  0  0  0  0  0  0  0  0  0
   -4.2276    0.6748    0.4074 C   0  0  0  0  0  0  0  0  0  0  0  0
   -4.7422    1.7400    1.1130 C   0  0  0  0  0  0  0  0  0  0  0  0
   -5.4716    2.6883    0.4311 C   0  0  0  0  0  0  0  0  0  0  0  0
   -5.7047    2.6106   -0.9267 C   0  0  0  0  0  0  0  0  0  0  0  0
   -6.4276    3.5510   -1.6011 F   0  0  0  0  0  0  0  0  0  0  0  0
   -5.1573    1.5153   -1.5644 C   0  0  0  0  0  0  0  0  0  0  0  0
   -4.4255    0.5439   -0.9404 C   0  0  0  0  0  0  0  0  0  0  0  0
   -3.8964   -0.5278   -1.5953 F   0  0  0  0  0  0  0  0  0  0  0  0
   -1.6404   -1.5576    1.7488 C   0  0  0  0  0  0  0  0  0  0  0  0
   -2.3711   -2.0681    2.6486 O   0  0  0  0  0  0  0  0  0  0  0  0
   -0.3731   -1.9749    1.6482 N   0  0  0  0  0  0  0  0  0  0  0  0
    0.2098   -2.9810    2.5143 C   0  0  0  0  0  0  0  0  0  0  0  0
    0.4202   -1.4264    0.6780 C   0  0  0  0  0  0  0  0  0  0  0  0
    1.6965   -1.8109    0.5366 N   0  0  0  0  0  0  0  0  0  0  0  0
  1  2  1  0
  2  3  1  0
  3  4  1  0
  4  5  2  0
  4  6  1  0
  6  7  1  0
  7  8  1  0
  7  9  1  0
 11 10  1  1
 11 12  1  0
 12 13  1  0
 13 14  1  0
 14 15  2  0
 15 16  1  0
 16 17  2  0
 11 18  1  0
 18 19  1  0
 19 20  2  0
 20 21  1  0
 21 22  2  0
 22 23  1  0
 23 24  2  0
 24 25  1  0
 25 26  1  0
 26 27  2  0
 27 28  1  0
 28 29  2  0
 29 30  1  0
 29 31  1  0
 31 32  2  0
 32 33  1  0
 24 34  1  0
 34 35  2  0
 34 36  1  0
 36 37  1  0
 36 38  1  0
 38 39  2  0
 17 13  1  0
 39 19  1  0
 38 22  1  0
 32 26  1  0
M  END

