
     RDKit          3D

 41 44  0  0  0  0  0  0  0  0999 V2000
    1.5164    0.5057    1.4202 C   0  0  0  0  0  0  0  0  0  0  0  0
    1.7923    0.9070   -0.1719 C   0  0  1  0  0  0  0  0  0  0  0  0
    3.2919    0.8637    0.0096 O   0  0  0  0  0  0  0  0  0  0  0  0
    1.7078   -0.6522   -0.6622 C   0  0  0  0  0  0  0  0  0  0  0  0
    0.3470   -1.1282   -0.3121 C   0  0  0  0  0  0  0  0  0  0  0  0
    0.2450   -2.3880   -0.2687 O   0  0  0  0  0  0  0  0  0  0  0  0
   -0.7545   -0.2934   -0.0473 N   0  0  0  0  0  0  0  0  0  0  0  0
   -2.0830   -0.7893    0.3105 C   0  0  0  0  0  0  0  0  0  0  0  0
   -3.0226    0.2886   -0.1793 C   0  0  0  0  0  0  0  0  0  0  0  0
   -2.2339    1.5537   -0.0141 C   0  0  0  0  0  0  0  0  0  0  0  0
   -0.8063    1.1324   -0.0847 C   0  0  0  0  0  0  0  0  0  0  0  0
    6.0358    0.1601    1.1833 C   0  0  0  0  0  0  0  0  0  0  0  0
    4.9102   -0.6071    0.2271 C   0  0  2  0  0  0  0  0  0  0  0  0
    4.8120    0.6532   -0.8277 C   0  0  0  0  0  0  0  0  0  0  0  0
    6.1533    0.8087   -1.3519 N   0  0  0  0  0  0  0  0  0  0  0  0
    6.7407    0.2752   -2.3928 N   0  0  0  0  0  0  0  0  0  0  0  0
    7.9815    0.7358   -2.4506 C   0  0  0  0  0  0  0  0  0  0  0  0
    8.1529    1.5671   -1.4234 N   0  0  0  0  0  0  0  0  0  0  0  0
    7.0287    1.5998   -0.7641 N   0  0  0  0  0  0  0  0  0  0  0  0
    3.7097   -0.0838    1.0997 N   0  0  0  0  0  0  0  0  0  0  0  0
    2.4335   -0.5131    0.6370 C   0  0  0  0  0  0  0  0  0  0  0  0
    2.2710   -1.2937   -0.4459 N   0  0  0  0  0  0  0  0  0  0  0  0
    1.0069   -1.6565   -0.8163 C   0  0  0  0  0  0  0  0  0  0  0  0
   -0.0992   -1.2422   -0.1081 C   0  0  0  0  0  0  0  0  0  0  0  0
   -1.3880   -1.5836   -0.4454 C   0  0  0  0  0  0  0  0  0  0  0  0
   -2.4458   -1.1146    0.3346 C   0  0  0  0  0  0  0  0  0  0  0  0
   -3.7618   -1.4340    0.0314 O   0  0  0  0  0  0  0  0  0  0  0  0
   -4.7094   -0.4671   -0.2569 C   0  0  0  0  0  0  0  0  0  0  0  0
   -4.3739    0.8818   -0.2550 C   0  0  0  0  0  0  0  0  0  0  0  0
   -5.3092    1.8469   -0.5402 C   0  0  0  0  0  0  0  0  0  0  0  0
   -6.6099    1.5284   -0.8385 C   0  0  0  0  0  0  0  0  0  0  0  0
   -7.4765    2.5418   -1.1098 F   0  0  0  0  0  0  0  0  0  0  0  0
   -6.9635    0.2073   -0.8464 C   0  0  0  0  0  0  0  0  0  0  0  0
   -6.0214   -0.7619   -0.5593 C   0  0  0  0  0  0  0  0  0  0  0  0
   -6.3635   -2.0933   -0.5638 F   0  0  0  0  0  0  0  0  0  0  0  0
   -2.2310   -0.3165    1.4364 C   0  0  0  0  0  0  0  0  0  0  0  0
   -3.2172    0.0912    2.1221 O   0  0  0  0  0  0  0  0  0  0  0  0
   -0.9620   -0.0032    1.7363 N   0  0  0  0  0  0  0  0  0  0  0  0
   -0.7407    0.8381    2.8983 C   0  0  0  0  0  0  0  0  0  0  0  0
    0.0811   -0.4407    1.0024 C   0  0  0  0  0  0  0  0  0  0  0  0
    1.3556   -0.1241    1.3063 N   0  0  0  0  0  0  0  0  0  0  0  0
  2  1  1  1
  2  3  1  0
  2  4  1  0
  4  5  1  0
  5  6  2  0
  5  7  1  0
  7  8  1  0
  8  9  1  0
  9 10  1  0
 10 11  1  0
 13 12  1  1
 13 14  1  0
 14 15  1  0
 15 16  1  0
 16 17  2  0
 17 18  1  0
 18 19  2  0
 13 20  1  0
 20 21  1  0
 21 22  2  0
 22 23  1  0
 23 24  2  0
 24 25  1  0
 25 26  2  0
 26 27  1  0
 27 28  1  0
 28 29  2  0
 29 30  1  0
 30 31  2  0
 31 32  1  0
 31 33  1  0
 33 34  2  0
 34 35  1  0
 26 36  1  0
 36 37  2  0
 36 38  1  0
 38 39  1  0
 38 40  1  0
 40 41  2  0
 11  7  1  0
 19 15  1  0
 41 21  1  0
 40 24  1  0
 34 28  1  0
M  END

