
     RDKit          3D

 44 46  0  0  0  0  0  0  0  0999 V2000
    5.0317   -1.1977    0.9111 C   0  0  0  0  0  0  0  0  0  0  0  0
    4.2602   -0.1170    0.2082 C   0  0  0  0  0  0  0  0  0  0  0  0
    4.4674   -0.1298   -1.2888 C   0  0  0  0  0  0  0  0  0  0  0  0
    2.8095   -0.0768    0.5716 C   0  0  0  0  0  0  0  0  0  0  0  0
    2.0765   -1.3593    0.2474 C   0  0  0  0  0  0  0  0  0  0  0  0
    0.6970   -1.1721    0.6510 N   0  0  0  0  0  0  0  0  0  0  0  0
   -0.0087   -0.0901    0.0045 C   0  0  0  0  0  0  0  0  0  0  0  0
    0.5801    0.6127   -0.8447 O   0  0  0  0  0  0  0  0  0  0  0  0
   -1.4246    0.1776    0.3534 C   0  0  0  0  0  0  0  0  0  0  0  0
   -1.8917    1.3538   -0.4724 C   0  0  0  0  0  0  0  0  0  0  0  0
   -3.3173    1.6366   -0.1326 C   0  0  0  0  0  0  0  0  0  0  0  0
   -4.1311    0.4308   -0.4455 C   0  0  0  0  0  0  0  0  0  0  0  0
   -5.5371    0.5337   -0.1760 N   0  0  0  0  0  0  0  0  0  0  0  0
   -3.6119   -0.6024   -0.9137 O   0  0  0  0  0  0  0  0  0  0  0  0
    6.0911    1.3464    2.0047 C   0  0  0  0  0  0  0  0  0  0  0  0
    4.8182    0.3046    2.2144 C   0  0  2  0  0  0  0  0  0  0  0  0
    5.3876   -0.8364    1.1699 C   0  0  0  0  0  0  0  0  0  0  0  0
    5.5278   -0.2663   -0.1148 N   0  0  0  0  0  0  0  0  0  0  0  0
    4.6997   -0.1664   -1.1416 N   0  0  0  0  0  0  0  0  0  0  0  0
    5.3039    0.4731   -2.1621 C   0  0  0  0  0  0  0  0  0  0  0  0
    6.5357    0.7716   -1.7453 N   0  0  0  0  0  0  0  0  0  0  0  0
    6.6444    0.3231   -0.5290 N   0  0  0  0  0  0  0  0  0  0  0  0
    3.9071    1.0072    1.1376 N   0  0  0  0  0  0  0  0  0  0  0  0
    2.6300    0.3934    0.9824 C   0  0  0  0  0  0  0  0  0  0  0  0
    2.2834   -0.6770    1.7058 N   0  0  0  0  0  0  0  0  0  0  0  0
    1.1002   -1.3098    1.6163 C   0  0  0  0  0  0  0  0  0  0  0  0
    0.1847   -0.8216    0.7188 C   0  0  0  0  0  0  0  0  0  0  0  0
   -1.0533   -1.4079    0.5609 C   0  0  0  0  0  0  0  0  0  0  0  0
   -1.9763   -0.9196   -0.3406 C   0  0  0  0  0  0  0  0  0  0  0  0
   -3.2199   -1.5027   -0.5043 O   0  0  0  0  0  0  0  0  0  0  0  0
   -4.3501   -0.7330   -0.2594 C   0  0  0  0  0  0  0  0  0  0  0  0
   -4.2959    0.5865    0.1398 C   0  0  0  0  0  0  0  0  0  0  0  0
   -5.4295    1.3126    0.3715 C   0  0  0  0  0  0  0  0  0  0  0  0
   -6.6641    0.7141    0.2029 C   0  0  0  0  0  0  0  0  0  0  0  0
   -7.8140    1.4234    0.4296 F   0  0  0  0  0  0  0  0  0  0  0  0
   -6.7349   -0.6108   -0.1978 C   0  0  0  0  0  0  0  0  0  0  0  0
   -5.5954   -1.3489   -0.4332 C   0  0  0  0  0  0  0  0  0  0  0  0
   -5.6415   -2.6459   -0.8257 F   0  0  0  0  0  0  0  0  0  0  0  0
   -1.6132    0.1847   -1.0841 C   0  0  0  0  0  0  0  0  0  0  0  0
   -2.4395    0.6377   -1.9047 O   0  0  0  0  0  0  0  0  0  0  0  0
   -0.4133    0.7391   -0.9194 N   0  0  0  0  0  0  0  0  0  0  0  0
   -0.0836    1.8944   -1.7237 C   0  0  0  0  0  0  0  0  0  0  0  0
    0.4985    0.2792   -0.0477 C   0  0  0  0  0  0  0  0  0  0  0  0
    1.7121    0.8551    0.1060 N   0  0  0  0  0  0  0  0  0  0  0  0
  1  2  1  0
  2  3  1  0
  2  4  1  0
  4  5  1  0
  5  6  1  0
  6  7  1  0
  7  8  2  0
  7  9  1  0
  9 10  1  0
 10 11  1  0
 11 12  1  0
 12 13  1  0
 12 14  2  0
 16 15  1  6
 16 17  1  0
 17 18  1  0
 18 19  1  0
 19 20  2  0
 20 21  1  0
 21 22  2  0
 16 23  1  0
 23 24  1  0
 24 25  2  0
 25 26  1  0
 26 27  2  0
 27 28  1  0
 28 29  2  0
 29 30  1  0
 30 31  1  0
 31 32  2  0
 32 33  1  0
 33 34  2  0
 34 35  1  0
 34 36  1  0
 36 37  2  0
 37 38  1  0
 29 39  1  0
 39 40  2  0
 39 41  1  0
 41 42  1  0
 41 43  1  0
 43 44  2  0
 22 18  1  0
 44 24  1  0
 43 27  1  0
 37 31  1  0
M  END

