
     RDKit          3D

 47 51  0  0  0  0  0  0  0  0999 V2000
    6.6490    0.4656   -0.9975 C   0  0  0  0  0  0  0  0  0  0  0  0
    5.2201    1.2111   -1.3880 C   0  0  2  0  0  0  0  0  0  0  0  0
    5.1829    2.0917    0.0084 C   0  0  0  0  0  0  0  0  0  0  0  0
    5.1688    1.1976    1.1045 N   0  0  0  0  0  0  0  0  0  0  0  0
    4.0367    0.7365    1.6334 N   0  0  0  0  0  0  0  0  0  0  0  0
    4.2918   -0.0836    2.6475 C   0  0  0  0  0  0  0  0  0  0  0  0
    5.6285   -0.1407    2.7607 N   0  0  0  0  0  0  0  0  0  0  0  0
    6.1221    0.6352    1.8251 N   0  0  0  0  0  0  0  0  0  0  0  0
    4.3315    0.0237   -0.8380 N   0  0  0  0  0  0  0  0  0  0  0  0
    2.9248    0.2226   -0.9655 C   0  0  0  0  0  0  0  0  0  0  0  0
    2.4226    1.3267   -1.5070 N   0  0  0  0  0  0  0  0  0  0  0  0
    1.1077    1.4906   -1.6156 C   0  0  0  0  0  0  0  0  0  0  0  0
    0.2232    0.5085   -1.1642 C   0  0  0  0  0  0  0  0  0  0  0  0
   -1.1117    0.6329   -1.2540 C   0  0  0  0  0  0  0  0  0  0  0  0
   -1.9619   -0.4050   -0.7748 C   0  0  0  0  0  0  0  0  0  0  0  0
   -3.2451   -0.1692   -0.9182 O   0  0  0  0  0  0  0  0  0  0  0  0
   -4.4383    0.0207   -0.3951 C   0  0  0  0  0  0  0  0  0  0  0  0
   -5.0372    1.3033   -0.6125 C   0  0  0  0  0  0  0  0  0  0  0  0
   -6.2534    1.5814   -0.1143 C   0  0  0  0  0  0  0  0  0  0  0  0
   -6.9845    0.6622    0.6239 C   0  0  0  0  0  0  0  0  0  0  0  0
   -8.2015    1.0035    1.0988 F   0  0  0  0  0  0  0  0  0  0  0  0
   -6.3968   -0.5530    0.8189 C   0  0  0  0  0  0  0  0  0  0  0  0
   -5.1399   -0.9044    0.3294 C   0  0  0  0  0  0  0  0  0  0  0  0
   -4.7284   -2.1584    0.6034 F   0  0  0  0  0  0  0  0  0  0  0  0
   -1.3534   -1.4962   -0.2379 C   0  0  0  0  0  0  0  0  0  0  0  0
   -1.9872   -2.4878    0.2211 O   0  0  0  0  0  0  0  0  0  0  0  0
    0.0011   -1.5798   -0.1668 N   0  0  0  0  0  0  0  0  0  0  0  0
    0.6055   -2.7634    0.4149 C   0  0  0  0  0  0  0  0  0  0  0  0
    0.7928   -0.6074   -0.6154 C   0  0  0  0  0  0  0  0  0  0  0  0
    2.1305   -0.7323   -0.5251 N   0  0  0  0  0  0  0  0  0  0  0  0
    1.9704    0.3001   -0.6378 O   0  0  0  0  0  0  0  0  0  0  0  0
    2.3706   -0.1492    0.3981 C   0  0  0  0  0  0  0  0  0  0  0  0
    1.4908   -0.4773    1.4952 N   0  0  0  0  0  0  0  0  0  0  0  0
    0.0734   -0.2459    1.3135 C   0  0  0  0  0  0  0  0  0  0  0  0
   -0.4943   -1.0318    0.1655 C   0  0  0  0  0  0  0  0  0  0  0  0
   -1.9384   -0.7255    0.0668 C   0  0  0  0  0  0  0  0  0  0  0  0
   -2.3334    0.3233   -0.7231 C   0  0  0  0  0  0  0  0  0  0  0  0
   -3.6878    0.6529   -0.8491 C   0  0  0  0  0  0  0  0  0  0  0  0
   -4.6112   -0.1156   -0.1500 C   0  0  0  0  0  0  0  0  0  0  0  0
   -5.9549    0.2593   -0.3129 O   0  0  0  0  0  0  0  0  0  0  0  0
   -4.2413   -1.1769    0.6523 C   0  0  0  0  0  0  0  0  0  0  0  0
   -2.8875   -1.4537    0.7367 C   0  0  0  0  0  0  0  0  0  0  0  0
    3.9090   -0.4480    0.7175 C   0  0  2  0  0  0  0  0  0  0  0  0
    4.1682    1.0310    1.4281 C   0  0  0  0  0  0  0  0  0  0  0  0
    3.5665    1.9266    0.4049 C   0  0  0  0  0  0  0  0  0  0  0  0
    4.0773    1.3167   -0.8374 C   0  0  0  0  0  0  0  0  0  0  0  0
    4.5226    0.0141   -0.6455 N   0  0  0  0  0  0  0  0  0  0  0  0
  2  1  1  1
  2  3  1  0
  3  4  1  0
  4  5  1  0
  5  6  2  0
  6  7  1  0
  7  8  2  0
  2  9  1  0
  9 10  1  0
 10 11  2  0
 11 12  1  0
 12 13  2  0
 13 14  1  0
 14 15  2  0
 15 16  1  0
 16 17  1  0
 17 18  2  0
 18 19  1  0
 19 20  2  0
 20 21  1  0
 20 22  1  0
 22 23  2  0
 23 24  1  0
 15 25  1  0
 25 26  2  0
 25 27  1  0
 27 28  1  0
 27 29  1  0
 29 30  2  0
 31 32  2  0
 32 33  1  0
 33 34  1  0
 34 35  1  0
 35 36  1  0
 36 37  2  0
 37 38  1  0
 38 39  2  0
 39 40  1  0
 39 41  1  0
 41 42  2  0
 43 32  1  6
 43 44  1  0
 44 45  1  0
 45 46  1  0
 46 47  1  0
  8  4  1  0
 30 10  1  0
 42 36  1  0
 47 43  1  0
 29 13  1  0
 23 17  1  0
M  END

