
     RDKit          3D

 43 45  0  0  0  0  0  0  0  0999 V2000
    3.3850   -1.3609   -0.4865 C   0  0  0  0  0  0  0  0  0  0  0  0
    3.0898   -0.0122    0.1252 C   0  0  0  0  0  0  0  0  0  0  0  0
    3.9435    0.3062    1.3065 C   0  0  0  0  0  0  0  0  0  0  0  0
    2.9492    1.0766   -0.8573 C   0  0  0  0  0  0  0  0  0  0  0  0
    1.8421    0.8772   -1.8053 C   0  0  0  0  0  0  0  0  0  0  0  0
    0.5211    0.8423   -1.3763 N   0  0  0  0  0  0  0  0  0  0  0  0
   -0.1988    0.0488   -0.5034 C   0  0  0  0  0  0  0  0  0  0  0  0
    0.3583   -0.8824    0.0965 O   0  0  0  0  0  0  0  0  0  0  0  0
   -1.6364    0.3061   -0.2805 C   0  0  0  0  0  0  0  0  0  0  0  0
   -2.1315   -0.7160    0.7129 C   0  0  0  0  0  0  0  0  0  0  0  0
   -3.5990   -0.5480    1.0185 C   0  0  0  0  0  0  0  0  0  0  0  0
   -4.4845   -0.6835   -0.1742 C   0  0  0  0  0  0  0  0  0  0  0  0
   -4.0389   -1.3000    2.2238 C   0  0  0  0  0  0  0  0  0  0  0  0
    4.0959   -2.5938   -0.9702 C   0  0  0  0  0  0  0  0  0  0  0  0
    4.6967   -1.0382   -0.9715 C   0  0  2  0  0  0  0  0  0  0  0  0
    5.9437   -1.4390    0.0468 C   0  0  0  0  0  0  0  0  0  0  0  0
    6.6528   -0.1691    0.2045 N   0  0  0  0  0  0  0  0  0  0  0  0
    6.4832    0.7770    1.0844 N   0  0  0  0  0  0  0  0  0  0  0  0
    7.3796    1.7514    0.8204 C   0  0  0  0  0  0  0  0  0  0  0  0
    8.1121    1.3808   -0.2519 N   0  0  0  0  0  0  0  0  0  0  0  0
    7.6330    0.1976   -0.5971 N   0  0  0  0  0  0  0  0  0  0  0  0
    3.7592   -0.5939    0.2216 N   0  0  0  0  0  0  0  0  0  0  0  0
    2.3715   -0.7427   -0.1049 C   0  0  0  0  0  0  0  0  0  0  0  0
    1.9625   -1.2081   -1.2948 N   0  0  0  0  0  0  0  0  0  0  0  0
    0.6612   -1.3422   -1.5867 C   0  0  0  0  0  0  0  0  0  0  0  0
   -0.2745   -0.9895   -0.6312 C   0  0  0  0  0  0  0  0  0  0  0  0
   -1.6183   -1.1217   -0.9164 C   0  0  0  0  0  0  0  0  0  0  0  0
   -2.5078   -0.7572    0.0676 C   0  0  0  0  0  0  0  0  0  0  0  0
   -3.8583   -0.8922   -0.2246 O   0  0  0  0  0  0  0  0  0  0  0  0
   -4.6972    0.2242   -0.1995 C   0  0  0  0  0  0  0  0  0  0  0  0
   -4.2200    1.4779    0.1114 C   0  0  0  0  0  0  0  0  0  0  0  0
   -5.0996    2.5287    0.1171 C   0  0  0  0  0  0  0  0  0  0  0  0
   -6.4137    2.3429   -0.1766 C   0  0  0  0  0  0  0  0  0  0  0  0
   -7.2873    3.3730   -0.1732 F   0  0  0  0  0  0  0  0  0  0  0  0
   -6.8687    1.0953   -0.4819 C   0  0  0  0  0  0  0  0  0  0  0  0
   -6.0252   -0.0138   -0.5049 C   0  0  0  0  0  0  0  0  0  0  0  0
   -6.4878   -1.2454   -0.8090 F   0  0  0  0  0  0  0  0  0  0  0  0
   -2.0379   -0.2891    1.2620 C   0  0  0  0  0  0  0  0  0  0  0  0
   -2.9224    0.0266    2.1192 O   0  0  0  0  0  0  0  0  0  0  0  0
   -0.7431   -0.1642    1.5304 N   0  0  0  0  0  0  0  0  0  0  0  0
   -0.2991    0.3346    2.8054 C   0  0  0  0  0  0  0  0  0  0  0  0
    0.1480   -0.5134    0.5859 C   0  0  0  0  0  0  0  0  0  0  0  0
    1.4616   -0.3964    0.8330 N   0  0  0  0  0  0  0  0  0  0  0  0
  1  2  1  0
  2  3  1  0
  2  4  1  0
  4  5  1  0
  5  6  1  0
  6  7  1  0
  7  8  2  0
  7  9  1  0
  9 10  1  0
 10 11  1  0
 11 12  1  0
 11 13  1  0
 15 14  1  1
 15 16  1  0
 16 17  1  0
 17 18  1  0
 18 19  2  0
 19 20  1  0
 20 21  2  0
 15 22  1  0
 22 23  1  0
 23 24  2  0
 24 25  1  0
 25 26  2  0
 26 27  1  0
 27 28  2  0
 28 29  1  0
 29 30  1  0
 30 31  2  0
 31 32  1  0
 32 33  2  0
 33 34  1  0
 33 35  1  0
 35 36  2  0
 36 37  1  0
 28 38  1  0
 38 39  2  0
 38 40  1  0
 40 41  1  0
 40 42  1  0
 42 43  2  0
 21 17  1  0
 43 23  1  0
 42 26  1  0
 36 30  1  0
M  END

