
     RDKit          3D

 43 45  0  0  0  0  0  0  0  0999 V2000
    3.3032   -0.3092    1.2577 C   0  0  0  0  0  0  0  0  0  0  0  0
    3.7505   -0.0652   -0.1457 C   0  0  0  0  0  0  0  0  0  0  0  0
    4.2510    1.3282   -0.3934 C   0  0  0  0  0  0  0  0  0  0  0  0
    2.8507   -0.5719   -1.2080 C   0  0  0  0  0  0  0  0  0  0  0  0
    1.4861   -0.0931   -1.3120 C   0  0  0  0  0  0  0  0  0  0  0  0
    0.5317   -0.3217   -0.2399 C   0  0  0  0  0  0  0  0  0  0  0  0
    0.8262   -1.0414    0.7397 O   0  0  0  0  0  0  0  0  0  0  0  0
   -0.7818    0.2452   -0.2256 N   0  0  0  0  0  0  0  0  0  0  0  0
   -1.6791   -0.0289    0.8809 C   0  0  0  0  0  0  0  0  0  0  0  0
   -3.0035    0.6632    0.6960 C   0  0  0  0  0  0  0  0  0  0  0  0
   -3.6189    0.1804   -0.5469 C   0  0  0  0  0  0  0  0  0  0  0  0
   -4.8755    0.6802   -0.9478 N   0  0  0  0  0  0  0  0  0  0  0  0
   -3.0405   -0.6658   -1.2488 O   0  0  0  0  0  0  0  0  0  0  0  0
    4.6041   -0.8170   -2.0403 C   0  0  0  0  0  0  0  0  0  0  0  0
    4.6987    0.8282   -2.1368 C   0  0  2  0  0  0  0  0  0  0  0  0
    6.1680    0.8999   -1.4064 C   0  0  0  0  0  0  0  0  0  0  0  0
    6.0749    0.3426   -0.1164 N   0  0  0  0  0  0  0  0  0  0  0  0
    6.2606   -0.9237    0.2437 N   0  0  0  0  0  0  0  0  0  0  0  0
    6.0814   -1.0558    1.5667 C   0  0  0  0  0  0  0  0  0  0  0  0
    5.7788    0.1658    2.0181 N   0  0  0  0  0  0  0  0  0  0  0  0
    5.7740    1.0137    1.0035 N   0  0  0  0  0  0  0  0  0  0  0  0
    3.8734    1.0628   -0.8225 N   0  0  0  0  0  0  0  0  0  0  0  0
    2.5677    0.5071   -0.9447 C   0  0  0  0  0  0  0  0  0  0  0  0
    2.1173   -0.1223   -2.0266 N   0  0  0  0  0  0  0  0  0  0  0  0
    0.8774   -0.6563   -2.1577 C   0  0  0  0  0  0  0  0  0  0  0  0
    0.0613   -0.5182   -1.0811 C   0  0  0  0  0  0  0  0  0  0  0  0
   -1.2181   -1.0229   -1.1065 C   0  0  0  0  0  0  0  0  0  0  0  0
   -2.0513   -0.8869   -0.0192 C   0  0  0  0  0  0  0  0  0  0  0  0
   -3.3226   -1.4082   -0.0913 O   0  0  0  0  0  0  0  0  0  0  0  0
   -4.4074   -0.5544    0.0534 C   0  0  0  0  0  0  0  0  0  0  0  0
   -4.2335    0.7975    0.2667 C   0  0  0  0  0  0  0  0  0  0  0  0
   -5.3647    1.6014    0.4040 C   0  0  0  0  0  0  0  0  0  0  0  0
   -6.6280    1.0550    0.3278 C   0  0  0  0  0  0  0  0  0  0  0  0
   -7.6841    1.8750    0.4670 F   0  0  0  0  0  0  0  0  0  0  0  0
   -6.7909   -0.2966    0.1144 C   0  0  0  0  0  0  0  0  0  0  0  0
   -5.6689   -1.1074   -0.0238 C   0  0  0  0  0  0  0  0  0  0  0  0
   -5.8095   -2.4410   -0.2345 F   0  0  0  0  0  0  0  0  0  0  0  0
   -1.5641   -0.2377    1.0762 C   0  0  0  0  0  0  0  0  0  0  0  0
   -2.3337   -0.1129    2.0786 O   0  0  0  0  0  0  0  0  0  0  0  0
   -0.3076    0.2733    1.1375 N   0  0  0  0  0  0  0  0  0  0  0  0
    0.1921    0.9607    2.3120 C   0  0  0  0  0  0  0  0  0  0  0  0
    0.5092    0.1315    0.0515 C   0  0  0  0  0  0  0  0  0  0  0  0
    1.7455    0.6469    0.1418 N   0  0  0  0  0  0  0  0  0  0  0  0
  1  2  1  0
  2  3  1  0
  2  4  1  0
  4  5  1  0
  5  6  1  0
  6  7  2  0
  6  8  1  0
  8  9  1  0
  9 10  1  0
 10 11  1  0
 11 12  1  0
 11 13  2  0
 15 14  1  1
 15 16  1  0
 16 17  1  0
 17 18  1  0
 18 19  2  0
 19 20  1  0
 20 21  2  0
 15 22  1  0
 22 23  1  0
 23 24  2  0
 24 25  1  0
 25 26  2  0
 26 27  1  0
 27 28  2  0
 28 29  1  0
 29 30  1  0
 30 31  2  0
 31 32  1  0
 32 33  2  0
 33 34  1  0
 33 35  1  0
 35 36  2  0
 36 37  1  0
 28 38  1  0
 38 39  2  0
 38 40  1  0
 40 41  1  0
 40 42  1  0
 42 43  2  0
 21 17  1  0
 43 23  1  0
 42 26  1  0
 36 30  1  0
M  END

