
     RDKit          3D

 38 40  0  0  0  0  0  0  0  0999 V2000
    3.4129   -0.8955   -0.9126 C   0  0  0  0  0  0  0  0  0  0  0  0
    2.3296   -0.0157   -0.3611 C   0  0  0  0  0  0  0  0  0  0  0  0
    1.0513   -0.7029   -0.3270 N   0  0  0  0  0  0  0  0  0  0  0  0
   -0.1285   -0.1011    0.1464 C   0  0  0  0  0  0  0  0  0  0  0  0
   -0.0756    1.0827    0.5581 O   0  0  0  0  0  0  0  0  0  0  0  0
   -1.4551   -0.7615    0.2006 C   0  0  0  0  0  0  0  0  0  0  0  0
   -2.5076    0.1284    0.7491 C   0  0  0  0  0  0  0  0  0  0  0  0
   -2.6270    1.2656   -0.0535 O   0  0  0  0  0  0  0  0  0  0  0  0
    4.2998   -1.8583    2.6116 C   0  0  0  0  0  0  0  0  0  0  0  0
    5.0676   -1.1385    1.3272 C   0  0  2  0  0  0  0  0  0  0  0  0
    4.3911    0.3396    1.6270 C   0  0  0  0  0  0  0  0  0  0  0  0
    4.9529    1.1598    0.5716 N   0  0  0  0  0  0  0  0  0  0  0  0
    4.4571    1.3687   -0.6284 N   0  0  0  0  0  0  0  0  0  0  0  0
    5.2622    2.1768   -1.3016 C   0  0  0  0  0  0  0  0  0  0  0  0
    6.2875    2.4817   -0.5042 N   0  0  0  0  0  0  0  0  0  0  0  0
    6.0654    1.8430    0.6318 N   0  0  0  0  0  0  0  0  0  0  0  0
    4.0177   -1.5252    0.2263 N   0  0  0  0  0  0  0  0  0  0  0  0
    2.7043   -1.1525    0.3246 C   0  0  0  0  0  0  0  0  0  0  0  0
    2.1492   -0.4347    1.3316 N   0  0  0  0  0  0  0  0  0  0  0  0
    0.8444   -0.1066    1.3567 C   0  0  0  0  0  0  0  0  0  0  0  0
    0.0217   -0.4994    0.3392 C   0  0  0  0  0  0  0  0  0  0  0  0
   -1.3213   -0.2129    0.2767 C   0  0  0  0  0  0  0  0  0  0  0  0
   -2.0950   -0.6333   -0.7683 C   0  0  0  0  0  0  0  0  0  0  0  0
   -3.4427   -0.3850   -0.8985 O   0  0  0  0  0  0  0  0  0  0  0  0
   -4.1945    0.3225    0.0091 C   0  0  0  0  0  0  0  0  0  0  0  0
   -3.6481    0.8567    1.1559 C   0  0  0  0  0  0  0  0  0  0  0  0
   -4.4592    1.5421    2.0009 C   0  0  0  0  0  0  0  0  0  0  0  0
   -5.7940    1.7279    1.7683 C   0  0  0  0  0  0  0  0  0  0  0  0
   -6.5242    2.4192    2.6571 F   0  0  0  0  0  0  0  0  0  0  0  0
   -6.3344    1.1923    0.6218 C   0  0  0  0  0  0  0  0  0  0  0  0
   -5.5377    0.4931   -0.2530 C   0  0  0  0  0  0  0  0  0  0  0  0
   -6.1042   -0.0272   -1.3842 F   0  0  0  0  0  0  0  0  0  0  0  0
   -1.4906   -1.3624   -1.7743 C   0  0  0  0  0  0  0  0  0  0  0  0
   -2.1846   -1.7714   -2.7665 O   0  0  0  0  0  0  0  0  0  0  0  0
   -0.2029   -1.6495   -1.7357 N   0  0  0  0  0  0  0  0  0  0  0  0
    0.3796   -2.4195   -2.8212 C   0  0  0  0  0  0  0  0  0  0  0  0
    0.5698   -1.2278   -0.6890 C   0  0  0  0  0  0  0  0  0  0  0  0
    1.8631   -1.5192   -0.6555 N   0  0  0  0  0  0  0  0  0  0  0  0
  1  2  1  0
  2  3  1  0
  3  4  1  0
  4  5  2  0
  4  6  1  0
  6  7  1  0
  7  8  1  0
 10  9  1  1
 10 11  1  0
 11 12  1  0
 12 13  1  0
 13 14  2  0
 14 15  1  0
 15 16  2  0
 10 17  1  0
 17 18  1  0
 18 19  2  0
 19 20  1  0
 20 21  2  0
 21 22  1  0
 22 23  2  0
 23 24  1  0
 24 25  1  0
 25 26  2  0
 26 27  1  0
 27 28  2  0
 28 29  1  0
 28 30  1  0
 30 31  2  0
 31 32  1  0
 23 33  1  0
 33 34  2  0
 33 35  1  0
 35 36  1  0
 35 37  1  0
 37 38  2  0
 16 12  1  0
 38 18  1  0
 37 21  1  0
 31 25  1  0
M  END

