
     RDKit          3D

 47 49  0  0  0  0  0  0  0  0999 V2000
    5.5895   -2.8696   -1.8678 C   0  0  0  0  0  0  0  0  0  0  0  0
    4.9846   -1.3120   -1.6352 C   0  0  2  0  0  0  0  0  0  0  0  0
    5.8852   -1.1569   -0.2674 C   0  0  0  0  0  0  0  0  0  0  0  0
    5.6005    0.1441    0.2218 N   0  0  0  0  0  0  0  0  0  0  0  0
    4.7142    0.6191    1.0688 N   0  0  0  0  0  0  0  0  0  0  0  0
    4.8576    1.9487    1.1977 C   0  0  0  0  0  0  0  0  0  0  0  0
    5.8637    2.3088    0.4064 N   0  0  0  0  0  0  0  0  0  0  0  0
    6.2986    1.2151   -0.1720 N   0  0  0  0  0  0  0  0  0  0  0  0
    3.7256   -1.8629   -0.8811 N   0  0  0  0  0  0  0  0  0  0  0  0
    2.6542   -0.9763   -0.7184 C   0  0  0  0  0  0  0  0  0  0  0  0
    2.5583    0.2822   -1.1390 N   0  0  0  0  0  0  0  0  0  0  0  0
    1.4724    1.0460   -0.9242 C   0  0  0  0  0  0  0  0  0  0  0  0
    0.3904    0.5427   -0.2435 C   0  0  0  0  0  0  0  0  0  0  0  0
   -0.7535    1.2456    0.0202 C   0  0  0  0  0  0  0  0  0  0  0  0
   -1.8083    0.6875    0.7086 C   0  0  0  0  0  0  0  0  0  0  0  0
   -2.9835    1.3367    1.0067 O   0  0  0  0  0  0  0  0  0  0  0  0
   -4.2322    0.9139    0.5727 C   0  0  0  0  0  0  0  0  0  0  0  0
   -4.2882   -0.2230   -0.2050 C   0  0  0  0  0  0  0  0  0  0  0  0
   -5.4999   -0.6961   -0.6687 C   0  0  0  0  0  0  0  0  0  0  0  0
   -6.6746   -0.0335   -0.3577 C   0  0  0  0  0  0  0  0  0  0  0  0
   -7.8691   -0.4975   -0.8133 F   0  0  0  0  0  0  0  0  0  0  0  0
   -6.5964    1.1050    0.4238 C   0  0  0  0  0  0  0  0  0  0  0  0
   -5.3916    1.5766    0.8856 C   0  0  0  0  0  0  0  0  0  0  0  0
   -5.3394    2.6932    1.6492 F   0  0  0  0  0  0  0  0  0  0  0  0
   -1.6585   -0.6166    1.1215 C   0  0  0  0  0  0  0  0  0  0  0  0
   -2.5947   -1.1644    1.7522 O   0  0  0  0  0  0  0  0  0  0  0  0
   -0.5390   -1.3330    0.8739 N   0  0  0  0  0  0  0  0  0  0  0  0
   -0.4492   -2.6943    1.3352 C   0  0  0  0  0  0  0  0  0  0  0  0
    0.4884   -0.7617    0.1931 C   0  0  0  0  0  0  0  0  0  0  0  0
    1.5949   -1.4675   -0.0526 N   0  0  0  0  0  0  0  0  0  0  0  0
   -7.2052    1.2481   -0.1981 N   0  0  0  0  0  0  0  0  0  0  0  0
   -5.9007    0.6863   -0.1674 C   0  0  0  0  0  0  0  0  0  0  0  0
   -5.7135   -0.4685    0.3779 N   0  0  0  0  0  4  0  0  0  0  0  0
   -4.7660    1.3435   -0.7176 N   0  0  0  0  0  0  0  0  0  0  0  0
   -3.4639    0.7093   -0.6500 C   0  0  0  0  0  0  0  0  0  0  0  0
   -3.0236    0.4468    0.7664 C   0  0  0  0  0  0  0  0  0  0  0  0
   -1.6611   -0.2120    0.7016 C   0  0  0  0  0  0  0  0  0  0  0  0
   -0.7268    0.7556   -0.0029 C   0  0  0  0  0  0  0  0  0  0  0  0
    0.6224    0.1271   -0.0782 C   0  0  0  0  0  0  0  0  0  0  0  0
    0.8365   -1.0181    0.3956 O   0  0  0  0  0  0  0  0  0  0  0  0
    1.6685    0.8487   -0.6984 N   0  0  0  0  0  0  0  0  0  0  0  0
    2.9776    0.2047   -0.7557 C   0  0  0  0  0  0  0  0  0  0  0  0
    3.3927   -0.0496    0.6761 C   0  0  0  0  0  0  0  0  0  0  0  0
    4.7458   -0.7187    0.7137 C   0  0  0  0  0  0  0  0  0  0  0  0
    5.7511    0.1559    0.0664 C   0  0  0  0  0  0  0  0  0  0  0  0
    7.0976   -0.2301   -0.0341 O   0  0  0  0  0  1  0  0  0  0  0  0
    5.3686    1.2615   -0.3953 O   0  0  0  0  0  0  0  0  0  0  0  0
  2  1  1  6
  2  3  1  0
  3  4  1  0
  4  5  1  0
  5  6  2  0
  6  7  1  0
  7  8  2  0
  2  9  1  0
  9 10  1  0
 10 11  2  0
 11 12  1  0
 12 13  2  0
 13 14  1  0
 14 15  2  0
 15 16  1  0
 16 17  1  0
 17 18  2  0
 18 19  1  0
 19 20  2  0
 20 21  1  0
 20 22  1  0
 22 23  2  0
 23 24  1  0
 15 25  1  0
 25 26  2  0
 25 27  1  0
 27 28  1  0
 27 29  1  0
 29 30  2  0
 31 32  1  0
 32 33  2  0
 32 34  1  0
 34 35  1  0
 35 36  1  0
 36 37  1  0
 37 38  1  0
 38 39  1  0
 39 40  2  0
 39 41  1  0
 41 42  1  0
 42 43  1  0
 43 44  1  0
 44 45  1  0
 45 46  1  0
 45 47  2  0
  8  4  1  0
 30 10  1  0
 29 13  1  0
 23 17  1  0
M  CHG  1  33   1
M  RAD  1  46   2
M  END

