
     RDKit          3D

 44 46  0  0  0  0  0  0  0  0999 V2000
   -3.4995   -0.7102    0.7569 C   0  0  0  0  0  0  0  0  0  0  0  0
   -3.4401    0.7261    1.0535 C   0  0  0  0  0  0  0  0  0  0  0  0
   -3.2865    1.5934   -0.3165 C   0  0  2  0  0  0  0  0  0  0  0  0
   -4.6831    1.0543   -0.9772 C   0  0  0  0  0  0  0  0  0  0  0  0
   -2.3555    0.4998   -1.0917 C   0  0  0  0  0  0  0  0  0  0  0  0
   -1.1947    0.3874   -0.2392 N   0  0  0  0  0  0  0  0  0  0  0  0
   -0.1326   -0.4795   -0.5701 C   0  0  0  0  0  0  0  0  0  0  0  0
   -0.2017   -1.1604   -1.6206 O   0  0  0  0  0  0  0  0  0  0  0  0
    1.0277   -0.5523    0.3395 C   0  0  0  0  0  0  0  0  0  0  0  0
    2.0099   -1.5236   -0.2130 C   0  0  0  0  0  0  0  0  0  0  0  0
    3.2433   -1.7048    0.6032 C   0  0  0  0  0  0  0  0  0  0  0  0
    3.9255   -0.3856    0.7029 C   0  0  0  0  0  0  0  0  0  0  0  0
    5.1248   -0.2334    1.4152 O   0  0  0  0  0  1  0  0  0  0  0  0
    3.4625    0.6484    0.1570 O   0  0  0  0  0  0  0  0  0  0  0  0
    6.1546   -1.3347    1.3061 C   0  0  0  0  0  0  0  0  0  0  0  0
    4.6318   -1.7101    0.7853 C   0  0  2  0  0  0  0  0  0  0  0  0
    4.8919   -1.1342   -0.7347 C   0  0  0  0  0  0  0  0  0  0  0  0
    5.2233    0.2406   -0.6534 N   0  0  0  0  0  0  0  0  0  0  0  0
    6.3782    0.8492   -0.5293 N   0  0  0  0  0  0  0  0  0  0  0  0
    6.1833    2.1717   -0.4959 C   0  0  0  0  0  0  0  0  0  0  0  0
    4.8713    2.3904   -0.6022 N   0  0  0  0  0  0  0  0  0  0  0  0
    4.3090    1.2055   -0.6965 N   0  0  0  0  0  0  0  0  0  0  0  0
    4.0012   -0.3789    1.3509 N   0  0  0  0  0  0  0  0  0  0  0  0
    2.6003   -0.2879    1.1010 C   0  0  0  0  0  0  0  0  0  0  0  0
    1.9851    0.8050    1.5446 N   0  0  0  0  0  0  0  0  0  0  0  0
    0.6639    0.9962    1.3644 C   0  0  0  0  0  0  0  0  0  0  0  0
   -0.0937    0.0335    0.6974 C   0  0  0  0  0  0  0  0  0  0  0  0
   -1.4405    0.1786    0.4875 C   0  0  0  0  0  0  0  0  0  0  0  0
   -2.1197   -0.8260   -0.1849 C   0  0  0  0  0  0  0  0  0  0  0  0
   -3.4591   -0.7905   -0.4508 O   0  0  0  0  0  0  0  0  0  0  0  0
   -4.3085    0.2426   -0.0883 C   0  0  0  0  0  0  0  0  0  0  0  0
   -3.8949    1.3703    0.5923 C   0  0  0  0  0  0  0  0  0  0  0  0
   -4.8039    2.3579    0.9182 C   0  0  0  0  0  0  0  0  0  0  0  0
   -6.1443    2.2887    0.5969 C   0  0  0  0  0  0  0  0  0  0  0  0
   -7.0254    3.2685    0.9246 F   0  0  0  0  0  0  0  0  0  0  0  0
   -6.5450    1.1559   -0.0836 C   0  0  0  0  0  0  0  0  0  0  0  0
   -5.6456    0.1531   -0.4196 C   0  0  0  0  0  0  0  0  0  0  0  0
   -6.0693   -0.9450   -1.0867 F   0  0  0  0  0  0  0  0  0  0  0  0
   -1.3880   -1.9061   -0.5970 C   0  0  0  0  0  0  0  0  0  0  0  0
   -1.9789   -2.8445   -1.2158 O   0  0  0  0  0  0  0  0  0  0  0  0
   -0.0738   -2.0438   -0.3901 N   0  0  0  0  0  0  0  0  0  0  0  0
    0.6415   -3.2251   -0.8590 C   0  0  0  0  0  0  0  0  0  0  0  0
    0.5749   -1.0737    0.2576 C   0  0  0  0  0  0  0  0  0  0  0  0
    1.8801   -1.2072    0.4648 N   0  0  0  0  0  0  0  0  0  0  0  0
  1  2  1  0
  2  3  1  0
  3  4  1  6
  3  5  1  0
  5  6  1  0
  6  7  1  0
  7  8  2  0
  7  9  1  0
  9 10  1  0
 10 11  1  0
 11 12  1  0
 12 13  1  0
 12 14  2  0
 16 15  1  1
 16 17  1  0
 17 18  1  0
 18 19  1  0
 19 20  2  0
 20 21  1  0
 21 22  2  0
 16 23  1  0
 23 24  1  0
 24 25  2  0
 25 26  1  0
 26 27  2  0
 27 28  1  0
 28 29  2  0
 29 30  1  0
 30 31  1  0
 31 32  2  0
 32 33  1  0
 33 34  2  0
 34 35  1  0
 34 36  1  0
 36 37  2  0
 37 38  1  0
 29 39  1  0
 39 40  2  0
 39 41  1  0
 41 42  1  0
 41 43  1  0
 43 44  2  0
 22 18  1  0
 44 24  1  0
 43 27  1  0
 37 31  1  0
M  RAD  1  13   2
M  END

