
     RDKit          3D

 45 48  0  0  0  0  0  0  0  0999 V2000
    2.0163    1.6705    1.5457 C   0  0  0  0  0  0  0  0  0  0  0  0
    2.8859    1.1739    0.1691 C   0  0  1  0  0  0  0  0  0  0  0  0
    4.1611    1.8652    0.7846 O   0  0  0  0  0  0  0  0  0  0  0  0
    3.2801   -0.2828    0.8434 C   0  0  0  0  0  0  0  0  0  0  0  0
    2.3285   -1.1938    0.3806 N   0  0  0  0  0  0  0  0  0  0  0  0
    0.9520   -1.2095    0.5574 C   0  0  0  0  0  0  0  0  0  0  0  0
    0.3992   -0.3254    1.2130 O   0  0  0  0  0  0  0  0  0  0  0  0
    0.1418   -2.2953   -0.0451 C   0  0  0  0  0  0  0  0  0  0  0  0
   -1.3024   -2.0683    0.1682 C   0  0  0  0  0  0  0  0  0  0  0  0
   -1.9020   -0.8716   -0.4087 C   0  0  0  0  0  0  0  0  0  0  0  0
   -2.0173    0.2818    0.3264 C   0  0  0  0  0  0  0  0  0  0  0  0
   -2.5658    1.4381   -0.1453 C   0  0  0  0  0  0  0  0  0  0  0  0
   -3.0491    1.4802   -1.4560 C   0  0  0  0  0  0  0  0  0  0  0  0
   -2.9411    0.3309   -2.2079 C   0  0  0  0  0  0  0  0  0  0  0  0
   -2.3870   -0.8304   -1.7253 C   0  0  0  0  0  0  0  0  0  0  0  0
   -6.0152    0.9722   -0.1930 C   0  0  0  0  0  0  0  0  0  0  0  0
   -4.4379    0.6046   -0.5706 C   0  0  2  0  0  0  0  0  0  0  0  0
   -4.3545   -0.5804    0.5961 C   0  0  0  0  0  0  0  0  0  0  0  0
   -5.3861   -1.5014    0.2002 N   0  0  0  0  0  0  0  0  0  0  0  0
   -6.6533   -1.4888    0.5628 N   0  0  0  0  0  0  0  0  0  0  0  0
   -7.3249   -2.4950    0.0033 C   0  0  0  0  0  0  0  0  0  0  0  0
   -6.4171   -3.1670   -0.7484 N   0  0  0  0  0  0  0  0  0  0  0  0
   -5.2596   -2.5434   -0.6084 N   0  0  0  0  0  0  0  0  0  0  0  0
   -3.8640    1.7180    0.3997 N   0  0  0  0  0  0  0  0  0  0  0  0
   -2.4559    1.7884    0.4165 C   0  0  0  0  0  0  0  0  0  0  0  0
   -1.8869    2.7029    1.2104 N   0  0  0  0  0  0  0  0  0  0  0  0
   -0.5555    2.8412    1.2901 C   0  0  0  0  0  0  0  0  0  0  0  0
    0.2443    2.0042    0.5207 C   0  0  0  0  0  0  0  0  0  0  0  0
    1.6268    2.0951    0.5566 C   0  0  0  0  0  0  0  0  0  0  0  0
    2.3622    1.2346   -0.2315 C   0  0  0  0  0  0  0  0  0  0  0  0
    3.7618    1.3225   -0.1988 O   0  0  0  0  0  0  0  0  0  0  0  0
    4.4712    0.1950    0.2051 C   0  0  0  0  0  0  0  0  0  0  0  0
    3.8364   -0.9737    0.5632 C   0  0  0  0  0  0  0  0  0  0  0  0
    4.5935   -2.0437    0.9501 C   0  0  0  0  0  0  0  0  0  0  0  0
    5.9533   -1.9831    0.9902 C   0  0  0  0  0  0  0  0  0  0  0  0
    6.7328   -3.0317    1.3711 F   0  0  0  0  0  0  0  0  0  0  0  0
    6.5838   -0.7967    0.6261 C   0  0  0  0  0  0  0  0  0  0  0  0
    5.8577    0.3089    0.2288 C   0  0  0  0  0  0  0  0  0  0  0  0
    6.4559    1.4703   -0.1285 F   0  0  0  0  0  0  0  0  0  0  0  0
    1.7112    0.3146   -1.0276 C   0  0  0  0  0  0  0  0  0  0  0  0
    2.3935   -0.4702   -1.7468 O   0  0  0  0  0  0  0  0  0  0  0  0
    0.3736    0.2144   -1.0732 N   0  0  0  0  0  0  0  0  0  0  0  0
   -0.3057   -0.7580   -1.9149 C   0  0  0  0  0  0  0  0  0  0  0  0
   -0.3395    1.0648   -0.2948 C   0  0  0  0  0  0  0  0  0  0  0  0
   -1.7019    0.9815   -0.3245 N   0  0  0  0  0  0  0  0  0  0  0  0
  2  1  1  1
  2  3  1  0
  2  4  1  0
  4  5  1  0
  5  6  1  0
  6  7  2  0
  6  8  1  0
  8  9  1  0
  9 10  1  0
 10 11  2  0
 11 12  1  0
 12 13  2  0
 13 14  1  0
 14 15  2  0
 17 16  1  1
 17 18  1  0
 18 19  1  0
 19 20  1  0
 20 21  2  0
 21 22  1  0
 22 23  2  0
 17 24  1  0
 24 25  1  0
 25 26  2  0
 26 27  1  0
 27 28  2  0
 28 29  1  0
 29 30  2  0
 30 31  1  0
 31 32  1  0
 32 33  2  0
 33 34  1  0
 34 35  2  0
 35 36  1  0
 35 37  1  0
 37 38  2  0
 38 39  1  0
 30 40  1  0
 40 41  2  0
 40 42  1  0
 42 43  1  0
 42 44  1  0
 44 45  2  0
 15 10  1  0
 23 19  1  0
 45 25  1  0
 44 28  1  0
 38 32  1  0
M  END

