
     RDKit          3D

 38 40  0  0  0  0  0  0  0  0999 V2000
    3.1495    0.4959   -0.2797 C   0  0  0  0  0  0  0  0  0  0  0  0
    1.7929    0.9422   -0.5373 N   0  0  0  0  0  0  0  0  0  0  0  0
    0.6683    0.1424   -0.2990 C   0  0  0  0  0  0  0  0  0  0  0  0
    0.8516   -1.0108    0.1580 O   0  0  0  0  0  0  0  0  0  0  0  0
   -0.7247    0.5631   -0.5490 C   0  0  0  0  0  0  0  0  0  0  0  0
   -1.6945   -0.6795   -0.1300 C   0  0  1  0  0  0  0  0  0  0  0  0
   -1.1795   -0.6897    1.4388 C   0  0  0  0  0  0  0  0  0  0  0  0
   -2.8635    0.2363    0.1982 O   0  0  0  0  0  0  0  0  0  0  0  0
    5.1023   -0.5520    1.0135 C   0  0  0  0  0  0  0  0  0  0  0  0
    5.1055   -1.6380   -0.2198 C   0  0  2  0  0  0  0  0  0  0  0  0
    4.4627   -0.5904   -1.2987 C   0  0  0  0  0  0  0  0  0  0  0  0
    5.3918    0.4931   -1.3696 N   0  0  0  0  0  0  0  0  0  0  0  0
    5.3981    1.5818   -0.6322 N   0  0  0  0  0  0  0  0  0  0  0  0
    6.4338    2.3777   -0.9923 C   0  0  0  0  0  0  0  0  0  0  0  0
    7.0552    1.7184   -1.9841 N   0  0  0  0  0  0  0  0  0  0  0  0
    6.4088    0.5822   -2.1956 N   0  0  0  0  0  0  0  0  0  0  0  0
    3.7397   -2.2792    0.1802 N   0  0  0  0  0  0  0  0  0  0  0  0
    2.6301   -1.4077    0.2850 C   0  0  0  0  0  0  0  0  0  0  0  0
    2.6760   -0.0828    0.0659 N   0  0  0  0  0  0  0  0  0  0  0  0
    1.6093    0.7234    0.1717 C   0  0  0  0  0  0  0  0  0  0  0  0
    0.3874    0.1887    0.5230 C   0  0  0  0  0  0  0  0  0  0  0  0
   -0.7473    1.0009    0.6427 C   0  0  0  0  0  0  0  0  0  0  0  0
   -1.9391    0.4027    0.9976 C   0  0  0  0  0  0  0  0  0  0  0  0
   -3.1099    1.1146    1.1410 O   0  0  0  0  0  0  0  0  0  0  0  0
   -4.2528    0.8713    0.3917 C   0  0  0  0  0  0  0  0  0  0  0  0
   -4.3264   -0.1118   -0.5736 C   0  0  0  0  0  0  0  0  0  0  0  0
   -5.4874   -0.3166   -1.2946 C   0  0  0  0  0  0  0  0  0  0  0  0
   -6.6260    0.4383   -1.0957 C   0  0  0  0  0  0  0  0  0  0  0  0
   -7.7649    0.2293   -1.8107 F   0  0  0  0  0  0  0  0  0  0  0  0
   -6.5483    1.4205   -0.1293 C   0  0  0  0  0  0  0  0  0  0  0  0
   -5.3844    1.6315    0.5989 C   0  0  0  0  0  0  0  0  0  0  0  0
   -5.3077    2.5999    1.5517 F   0  0  0  0  0  0  0  0  0  0  0  0
   -1.9341   -0.9591    1.2114 C   0  0  0  0  0  0  0  0  0  0  0  0
   -3.0372   -1.4822    1.5349 O   0  0  0  0  0  0  0  0  0  0  0  0
   -0.8304   -1.7156    1.0896 N   0  0  0  0  0  0  0  0  0  0  0  0
   -0.9109   -3.1283    1.3301 C   0  0  0  0  0  0  0  0  0  0  0  0
    0.3430   -1.1706    0.7472 C   0  0  0  0  0  0  0  0  0  0  0  0
    1.4630   -1.9398    0.6240 N   0  0  0  0  0  0  0  0  0  0  0  0
  1  2  1  0
  2  3  1  0
  3  4  2  0
  3  5  1  0
  5  6  1  0
  6  7  1  1
  6  8  1  0
 10  9  1  1
 10 11  1  0
 11 12  1  0
 12 13  1  0
 13 14  2  0
 14 15  1  0
 15 16  2  0
 10 17  1  0
 17 18  1  0
 18 19  2  0
 19 20  1  0
 20 21  2  0
 21 22  1  0
 22 23  2  0
 23 24  1  0
 24 25  1  0
 25 26  2  0
 26 27  1  0
 27 28  2  0
 28 29  1  0
 28 30  1  0
 30 31  2  0
 31 32  1  0
 23 33  1  0
 33 34  2  0
 33 35  1  0
 35 36  1  0
 35 37  1  0
 37 38  2  0
 16 12  1  0
 38 18  1  0
 37 21  1  0
 31 25  1  0
M  END

