
     RDKit          3D

 41 43  0  0  0  0  0  0  0  0999 V2000
    2.8469    0.9082    3.0565 C   0  0  0  0  0  0  0  0  0  0  0  0
    4.2395    0.3966    2.3216 C   0  0  2  0  0  0  0  0  0  0  0  0
    3.7787    0.9234    0.8304 C   0  0  0  0  0  0  0  0  0  0  0  0
    4.8533    0.5952   -0.0601 N   0  0  0  0  0  0  0  0  0  0  0  0
    5.9231    1.2393   -0.4375 N   0  0  0  0  0  0  0  0  0  0  0  0
    6.6252    0.4756   -1.3074 C   0  0  0  0  0  0  0  0  0  0  0  0
    5.9440   -0.6705   -1.4532 N   0  0  0  0  0  0  0  0  0  0  0  0
    4.8805   -0.5705   -0.6898 N   0  0  0  0  0  0  0  0  0  0  0  0
    3.7421   -1.0759    2.1415 N   0  0  0  0  0  0  0  0  0  0  0  0
    2.5485   -1.3217    1.4711 C   0  0  0  0  0  0  0  0  0  0  0  0
    2.0697   -2.5709    1.2795 N   0  0  0  0  0  0  0  0  0  0  0  0
    0.9026   -2.6929    0.6246 C   0  0  0  0  0  0  0  0  0  0  0  0
    0.1904   -1.5957    0.1498 C   0  0  0  0  0  0  0  0  0  0  0  0
   -0.9974   -1.6958   -0.5182 C   0  0  0  0  0  0  0  0  0  0  0  0
   -1.6485   -0.5420   -0.9620 C   0  0  0  0  0  0  0  0  0  0  0  0
   -2.8427   -0.7348   -1.6277 O   0  0  0  0  0  0  0  0  0  0  0  0
   -4.0546   -0.2195   -1.2035 C   0  0  0  0  0  0  0  0  0  0  0  0
   -4.7296    0.6406   -2.0429 C   0  0  0  0  0  0  0  0  0  0  0  0
   -5.9532    1.2091   -1.7051 C   0  0  0  0  0  0  0  0  0  0  0  0
   -6.5331    0.9116   -0.4811 C   0  0  0  0  0  0  0  0  0  0  0  0
   -7.7202    1.4594   -0.1465 F   0  0  0  0  0  0  0  0  0  0  0  0
   -5.8504    0.0490    0.3541 C   0  0  0  0  0  0  0  0  0  0  0  0
   -4.6336   -0.5115    0.0093 C   0  0  0  0  0  0  0  0  0  0  0  0
   -3.9766   -1.3545    0.8373 F   0  0  0  0  0  0  0  0  0  0  0  0
   -1.1154    0.7016   -0.7392 C   0  0  0  0  0  0  0  0  0  0  0  0
   -1.7413    1.6922   -1.1581 O   0  0  0  0  0  0  0  0  0  0  0  0
    0.0488    0.7831   -0.0834 N   0  0  0  0  0  0  0  0  0  0  0  0
    0.6316    2.0862    0.1639 C   0  0  0  0  0  0  0  0  0  0  0  0
    0.7086   -0.3214    0.3622 C   0  0  0  0  0  0  0  0  0  0  0  0
    1.8631   -0.2627    1.0139 N   0  0  0  0  0  0  0  0  0  0  0  0
   -3.5208    0.5729    1.1646 O   0  0  0  0  0  1  0  0  0  0  0  0
   -2.3722   -0.0891    0.7248 C   0  0  0  0  0  0  0  0  0  0  0  0
   -1.5060   -0.3733    1.5634 O   0  0  0  0  0  0  0  0  0  0  0  0
   -2.2971   -0.3931   -0.7218 C   0  0  0  0  0  0  0  0  0  0  0  0
   -1.0463   -1.0984   -1.1136 C   0  0  0  0  0  0  0  0  0  0  0  0
    0.1749   -0.3048   -0.8012 C   0  0  0  0  0  0  0  0  0  0  0  0
    0.0223    0.8244   -0.2645 O   0  0  0  0  0  0  0  0  0  0  0  0
    1.4805   -0.7456   -1.0715 N   0  0  0  0  0  0  0  0  0  0  0  0
    2.6305    0.0871   -0.7373 C   0  0  0  0  0  0  0  0  0  0  0  0
    2.6489    0.3572    0.7631 C   0  0  0  0  0  0  0  0  0  0  0  0
    3.7852    1.1626    0.9921 O   0  0  0  0  0  0  0  0  0  0  0  0
  2  1  1  1
  2  3  1  0
  3  4  1  0
  4  5  1  0
  5  6  2  0
  6  7  1  0
  7  8  2  0
  2  9  1  0
  9 10  1  0
 10 11  2  0
 11 12  1  0
 12 13  2  0
 13 14  1  0
 14 15  2  0
 15 16  1  0
 16 17  1  0
 17 18  2  0
 18 19  1  0
 19 20  2  0
 20 21  1  0
 20 22  1  0
 22 23  2  0
 23 24  1  0
 15 25  1  0
 25 26  2  0
 25 27  1  0
 27 28  1  0
 27 29  1  0
 29 30  2  0
 31 32  1  0
 32 33  2  0
 32 34  1  0
 34 35  1  0
 35 36  1  0
 36 37  2  0
 36 38  1  0
 38 39  1  0
 39 40  1  0
 40 41  1  0
  8  4  1  0
 30 10  1  0
 29 13  1  0
 23 17  1  0
M  RAD  1  31   2
M  END

