
     RDKit          3D

 43 45  0  0  0  0  0  0  0  0999 V2000
    4.4479    0.4468   -0.8665 C   0  0  0  0  0  0  0  0  0  0  0  0
    2.9763    0.2166   -0.8300 C   0  0  0  0  0  0  0  0  0  0  0  0
    2.5810   -1.1152   -1.4284 C   0  0  0  0  0  0  0  0  0  0  0  0
    2.4235    0.3846    0.5679 C   0  0  0  0  0  0  0  0  0  0  0  0
    0.9206    0.1395    0.5506 C   0  0  0  0  0  0  0  0  0  0  0  0
    0.3888   -0.1472   -0.5437 O   0  0  0  0  0  0  0  0  0  0  0  0
    0.1624    0.2295    1.7046 N   0  0  0  0  0  0  0  0  0  0  0  0
   -1.1916    0.0565    1.9453 C   0  0  0  0  0  0  0  0  0  0  0  0
   -2.1414    0.9310    1.2442 C   0  0  0  0  0  0  0  0  0  0  0  0
   -2.1893    0.7690   -0.2256 C   0  0  0  0  0  0  0  0  0  0  0  0
   -2.6565   -0.5941   -0.5602 C   0  0  0  0  0  0  0  0  0  0  0  0
   -2.7833   -0.9837   -1.9024 N   0  0  0  0  0  0  0  0  0  0  0  0
   -2.9385   -1.3996    0.3441 O   0  0  0  0  0  0  0  0  0  0  0  0
   -4.4291    1.6655    1.0524 C   0  0  0  0  0  0  0  0  0  0  0  0
   -4.9106    1.7072   -0.5340 C   0  0  2  0  0  0  0  0  0  0  0  0
   -4.7858    0.0698   -0.7220 C   0  0  0  0  0  0  0  0  0  0  0  0
   -5.7202   -0.4266    0.2666 N   0  0  0  0  0  0  0  0  0  0  0  0
   -5.4660   -0.7250    1.5313 N   0  0  0  0  0  0  0  0  0  0  0  0
   -6.6495   -1.1423    2.0352 C   0  0  0  0  0  0  0  0  0  0  0  0
   -7.5948   -1.0945    1.0891 N   0  0  0  0  0  0  0  0  0  0  0  0
   -6.9967   -0.6465   -0.0046 N   0  0  0  0  0  0  0  0  0  0  0  0
   -3.4747    2.0206   -1.0956 N   0  0  0  0  0  0  0  0  0  0  0  0
   -2.4254    1.1599   -0.8355 C   0  0  0  0  0  0  0  0  0  0  0  0
   -2.5459    0.0359   -0.1129 N   0  0  0  0  0  0  0  0  0  0  0  0
   -1.4992   -0.7901    0.1266 C   0  0  0  0  0  0  0  0  0  0  0  0
   -0.2698   -0.4507   -0.3981 C   0  0  0  0  0  0  0  0  0  0  0  0
    0.8683   -1.2176   -0.2185 C   0  0  0  0  0  0  0  0  0  0  0  0
    2.0629   -0.8153   -0.7728 C   0  0  0  0  0  0  0  0  0  0  0  0
    3.2118   -1.5674   -0.6051 O   0  0  0  0  0  0  0  0  0  0  0  0
    4.3627   -1.1001    0.0044 C   0  0  0  0  0  0  0  0  0  0  0  0
    5.5186   -1.0873   -0.7439 C   0  0  0  0  0  0  0  0  0  0  0  0
    6.7078   -0.6435   -0.2303 C   0  0  0  0  0  0  0  0  0  0  0  0
    6.7036   -0.2027    1.0861 C   0  0  0  0  0  0  0  0  0  0  0  0
    7.8874    0.2322    1.5769 F   0  0  0  0  0  0  0  0  0  0  0  0
    5.5589   -0.2097    1.8442 C   0  0  0  0  0  0  0  0  0  0  0  0
    4.3971   -0.6601    1.2924 C   0  0  0  0  0  0  0  0  0  0  0  0
    3.2166   -0.6926    1.9986 F   0  0  0  0  0  0  0  0  0  0  0  0
    2.1466    0.3454   -1.5085 C   0  0  0  0  0  0  0  0  0  0  0  0
    3.2596    0.6791   -1.9997 O   0  0  0  0  0  0  0  0  0  0  0  0
    1.0385    1.0897   -1.6819 N   0  0  0  0  0  0  0  0  0  0  0  0
    1.1772    2.3023   -2.4637 C   0  0  0  0  0  0  0  0  0  0  0  0
   -0.1341    0.7041   -1.1435 C   0  0  0  0  0  0  0  0  0  0  0  0
   -1.2159    1.4607   -1.3312 N   0  0  0  0  0  0  0  0  0  0  0  0
  1  2  1  0
  2  3  1  0
  2  4  1  0
  4  5  1  0
  5  6  2  0
  5  7  1  0
  7  8  1  0
  8  9  1  0
  9 10  1  0
 10 11  1  0
 11 12  1  0
 11 13  2  0
 15 14  1  1
 15 16  1  0
 16 17  1  0
 17 18  1  0
 18 19  2  0
 19 20  1  0
 20 21  2  0
 15 22  1  0
 22 23  1  0
 23 24  2  0
 24 25  1  0
 25 26  2  0
 26 27  1  0
 27 28  2  0
 28 29  1  0
 29 30  1  0
 30 31  2  0
 31 32  1  0
 32 33  2  0
 33 34  1  0
 33 35  1  0
 35 36  2  0
 36 37  1  0
 28 38  1  0
 38 39  2  0
 38 40  1  0
 40 41  1  0
 40 42  1  0
 42 43  2  0
 21 17  1  0
 43 23  1  0
 42 26  1  0
 36 30  1  0
M  END

