
     RDKit          3D

 47 50  0  0  0  0  0  0  0  0999 V2000
    4.0653    2.4219    0.2005 C   0  0  0  0  0  0  0  0  0  0  0  0
    4.1298    0.9312   -0.0567 C   0  0  0  0  0  0  0  0  0  0  0  0
    5.2899    0.5978   -0.9700 C   0  0  0  0  0  0  0  0  0  0  0  0
    2.8284    0.3816   -0.5460 C   0  0  0  0  0  0  0  0  0  0  0  0
    2.9990   -1.1053   -0.7708 C   0  0  0  0  0  0  0  0  0  0  0  0
    1.7811   -1.7293   -1.2492 N   0  0  0  0  0  0  0  0  0  0  0  0
    0.5630   -1.6948   -0.4750 C   0  0  0  0  0  0  0  0  0  0  0  0
    0.6717   -1.0858    0.6199 O   0  0  0  0  0  0  0  0  0  0  0  0
   -0.6762   -2.3338   -0.9696 C   0  0  0  0  0  0  0  0  0  0  0  0
   -1.8590   -2.2050   -0.0905 C   0  0  0  0  0  0  0  0  0  0  0  0
   -2.3044   -0.8280    0.1813 C   0  0  0  0  0  0  0  0  0  0  0  0
   -1.8136   -0.1612    1.2699 C   0  0  0  0  0  0  0  0  0  0  0  0
   -2.2279    1.1129    1.5184 C   0  0  0  0  0  0  0  0  0  0  0  0
   -3.1289    1.7724    0.7171 C   0  0  0  0  0  0  0  0  0  0  0  0
   -3.5053    3.0689    1.0312 O   0  0  0  0  0  0  0  0  0  0  0  0
   -3.6063    1.0731   -0.3740 C   0  0  0  0  0  0  0  0  0  0  0  0
   -3.2065   -0.2166   -0.6522 C   0  0  0  0  0  0  0  0  0  0  0  0
    3.4014    3.0480    0.4179 C   0  0  0  0  0  0  0  0  0  0  0  0
    4.6212    1.9327    0.3730 C   0  0  2  0  0  0  0  0  0  0  0  0
    3.9398    1.0784   -0.8628 C   0  0  0  0  0  0  0  0  0  0  0  0
    4.9455    0.0336   -1.0067 N   0  0  0  0  0  0  0  0  0  0  0  0
    6.0134    0.0675   -1.7878 N   0  0  0  0  0  0  0  0  0  0  0  0
    6.6260   -1.1269   -1.5688 C   0  0  0  0  0  0  0  0  0  0  0  0
    5.9345   -1.8442   -0.6809 N   0  0  0  0  0  0  0  0  0  0  0  0
    4.8932   -1.1062   -0.3429 N   0  0  0  0  0  0  0  0  0  0  0  0
    4.0353    1.0316    1.5140 N   0  0  0  0  0  0  0  0  0  0  0  0
    2.7609    0.4896    1.3850 C   0  0  0  0  0  0  0  0  0  0  0  0
    2.3053   -0.2611    2.3644 N   0  0  0  0  0  0  0  0  0  0  0  0
    1.0873   -0.8349    2.3438 C   0  0  0  0  0  0  0  0  0  0  0  0
    0.2374   -0.6563    1.2635 C   0  0  0  0  0  0  0  0  0  0  0  0
   -1.0119   -1.2330    1.2205 C   0  0  0  0  0  0  0  0  0  0  0  0
   -1.7908   -1.0002    0.1033 C   0  0  0  0  0  0  0  0  0  0  0  0
   -3.0571   -1.5483   -0.0075 O   0  0  0  0  0  0  0  0  0  0  0  0
   -4.1682   -0.7053   -0.1413 C   0  0  0  0  0  0  0  0  0  0  0  0
   -4.0361    0.6692   -0.1651 C   0  0  0  0  0  0  0  0  0  0  0  0
   -5.1388    1.4902   -0.2975 C   0  0  0  0  0  0  0  0  0  0  0  0
   -6.4009    0.9098   -0.4081 C   0  0  0  0  0  0  0  0  0  0  0  0
   -7.4700    1.7198   -0.5369 F   0  0  0  0  0  0  0  0  0  0  0  0
   -6.5655   -0.4383   -0.3883 C   0  0  0  0  0  0  0  0  0  0  0  0
   -5.4392   -1.2275   -0.2544 C   0  0  0  0  0  0  0  0  0  0  0  0
   -5.5186   -2.5933   -0.2256 F   0  0  0  0  0  0  0  0  0  0  0  0
   -1.2747   -0.2157   -0.8848 C   0  0  0  0  0  0  0  0  0  0  0  0
   -2.0019   -0.0140   -1.8996 O   0  0  0  0  0  0  0  0  0  0  0  0
   -0.0672    0.3499   -0.8586 N   0  0  0  0  0  0  0  0  0  0  0  0
    0.4769    1.1797   -1.9052 C   0  0  0  0  0  0  0  0  0  0  0  0
    0.7168    0.1312    0.2375 C   0  0  0  0  0  0  0  0  0  0  0  0
    1.9461    0.6741    0.3248 N   0  0  0  0  0  0  0  0  0  0  0  0
  1  2  1  0
  2  3  1  0
  2  4  1  0
  4  5  1  0
  5  6  1  0
  6  7  1  0
  7  8  2  0
  7  9  1  0
  9 10  1  0
 10 11  1  0
 11 12  2  0
 12 13  1  0
 13 14  2  0
 14 15  1  0
 14 16  1  0
 16 17  2  0
 19 18  1  1
 19 20  1  0
 20 21  1  0
 21 22  1  0
 22 23  2  0
 23 24  1  0
 24 25  2  0
 19 26  1  0
 26 27  1  0
 27 28  2  0
 28 29  1  0
 29 30  2  0
 30 31  1  0
 31 32  2  0
 32 33  1  0
 33 34  1  0
 34 35  2  0
 35 36  1  0
 36 37  2  0
 37 38  1  0
 37 39  1  0
 39 40  2  0
 40 41  1  0
 32 42  1  0
 42 43  2  0
 42 44  1  0
 44 45  1  0
 44 46  1  0
 46 47  2  0
 17 11  1  0
 25 21  1  0
 47 27  1  0
 46 30  1  0
 40 34  1  0
M  END

