
     RDKit          3D

 43 45  0  0  0  0  0  0  0  0999 V2000
    3.4246    0.6008   -0.7049 C   0  0  0  0  0  0  0  0  0  0  0  0
    3.1919    0.5509    0.7882 C   0  0  0  0  0  0  0  0  0  0  0  0
    4.4945    0.3234    1.5139 C   0  0  0  0  0  0  0  0  0  0  0  0
    2.4447    1.7456    1.3043 C   0  0  0  0  0  0  0  0  0  0  0  0
    1.0923    1.7671    0.5858 C   0  0  0  0  0  0  0  0  0  0  0  0
    0.4277    0.5342    0.9124 N   0  0  0  0  0  0  0  0  0  0  0  0
   -0.8663    0.1860    0.4265 C   0  0  0  0  0  0  0  0  0  0  0  0
   -1.4241    1.0186   -0.3201 O   0  0  0  0  0  0  0  0  0  0  0  0
   -1.5271   -1.0988    0.7836 C   0  0  0  0  0  0  0  0  0  0  0  0
   -2.8743   -1.1873    0.1060 C   0  0  0  0  0  0  0  0  0  0  0  0
   -2.7734   -1.1364   -1.3603 C   0  0  0  0  0  0  0  0  0  0  0  0
   -3.9511   -1.1771   -2.1307 N   0  0  0  0  0  0  0  0  0  0  0  0
   -1.6595   -1.0587   -1.9047 O   0  0  0  0  0  0  0  0  0  0  0  0
   -6.1865   -1.8555    1.1272 C   0  0  0  0  0  0  0  0  0  0  0  0
   -4.9763   -0.6752    1.1727 C   0  0  2  0  0  0  0  0  0  0  0  0
   -5.6263    0.0559   -0.1596 C   0  0  0  0  0  0  0  0  0  0  0  0
   -4.8048    1.1961   -0.4469 N   0  0  0  0  0  0  0  0  0  0  0  0
   -4.9990    2.3944    0.0782 N   0  0  0  0  0  0  0  0  0  0  0  0
   -4.0908    3.2420   -0.4013 C   0  0  0  0  0  0  0  0  0  0  0  0
   -3.3049    2.5584   -1.2503 N   0  0  0  0  0  0  0  0  0  0  0  0
   -3.7694    1.3088   -1.2551 N   0  0  0  0  0  0  0  0  0  0  0  0
   -3.9890   -1.5881    0.3543 N   0  0  0  0  0  0  0  0  0  0  0  0
   -2.6321   -1.1643    0.3599 C   0  0  0  0  0  0  0  0  0  0  0  0
   -2.1465   -0.1100    0.9888 N   0  0  0  0  0  0  0  0  0  0  0  0
   -0.8359    0.1732    0.9063 C   0  0  0  0  0  0  0  0  0  0  0  0
    0.0542   -0.5933    0.1842 C   0  0  0  0  0  0  0  0  0  0  0  0
    1.4007   -0.3071    0.0961 C   0  0  0  0  0  0  0  0  0  0  0  0
    2.1988   -1.1534   -0.6618 C   0  0  0  0  0  0  0  0  0  0  0  0
    3.5368   -0.9120   -0.7792 O   0  0  0  0  0  0  0  0  0  0  0  0
    4.1916    0.1544   -0.1779 C   0  0  0  0  0  0  0  0  0  0  0  0
    5.2166   -0.0572    0.7252 C   0  0  0  0  0  0  0  0  0  0  0  0
    5.8731    1.0048    1.3279 C   0  0  0  0  0  0  0  0  0  0  0  0
    5.5239    2.3072    1.0452 C   0  0  0  0  0  0  0  0  0  0  0  0
    6.1874    3.3310    1.6533 F   0  0  0  0  0  0  0  0  0  0  0  0
    4.5011    2.5333    0.1443 C   0  0  0  0  0  0  0  0  0  0  0  0
    3.8418    1.4667   -0.4609 C   0  0  0  0  0  0  0  0  0  0  0  0
    2.8332    1.6868   -1.3494 F   0  0  0  0  0  0  0  0  0  0  0  0
    1.6725   -2.2511   -1.3122 C   0  0  0  0  0  0  0  0  0  0  0  0
    2.4295   -3.0026   -1.9956 O   0  0  0  0  0  0  0  0  0  0  0  0
    0.3535   -2.4847   -1.1935 N   0  0  0  0  0  0  0  0  0  0  0  0
   -0.2048   -3.6346   -1.8734 C   0  0  0  0  0  0  0  0  0  0  0  0
   -0.4651   -1.6954   -0.4708 C   0  0  0  0  0  0  0  0  0  0  0  0
   -1.7833   -1.9288   -0.3521 N   0  0  0  0  0  0  0  0  0  0  0  0
  1  2  1  0
  2  3  1  0
  2  4  1  0
  4  5  1  0
  5  6  1  0
  6  7  1  0
  7  8  2  0
  7  9  1  0
  9 10  1  0
 10 11  1  0
 11 12  1  0
 11 13  2  0
 15 14  1  6
 15 16  1  0
 16 17  1  0
 17 18  1  0
 18 19  2  0
 19 20  1  0
 20 21  2  0
 15 22  1  0
 22 23  1  0
 23 24  2  0
 24 25  1  0
 25 26  2  0
 26 27  1  0
 27 28  2  0
 28 29  1  0
 29 30  1  0
 30 31  2  0
 31 32  1  0
 32 33  2  0
 33 34  1  0
 33 35  1  0
 35 36  2  0
 36 37  1  0
 28 38  1  0
 38 39  2  0
 38 40  1  0
 40 41  1  0
 40 42  1  0
 42 43  2  0
 21 17  1  0
 43 23  1  0
 42 26  1  0
 36 30  1  0
M  END

