
     RDKit          3D

 39 41  0  0  0  0  0  0  0  0999 V2000
    4.2520   -2.1722   -1.3657 C   0  0  0  0  0  0  0  0  0  0  0  0
    4.7048   -0.6211   -1.0274 C   0  0  2  0  0  0  0  0  0  0  0  0
    5.9345   -1.1070   -0.0385 C   0  0  0  0  0  0  0  0  0  0  0  0
    6.5040    0.1503    0.3975 N   0  0  0  0  0  0  0  0  0  0  0  0
    6.1709    0.8619    1.4541 N   0  0  0  0  0  0  0  0  0  0  0  0
    6.9683    1.9460    1.4515 C   0  0  0  0  0  0  0  0  0  0  0  0
    7.7716    1.8727    0.3924 N   0  0  0  0  0  0  0  0  0  0  0  0
    7.4828    0.7591   -0.2603 N   0  0  0  0  0  0  0  0  0  0  0  0
    3.6828   -0.4813    0.1640 N   0  0  0  0  0  0  0  0  0  0  0  0
    2.3405   -0.6605   -0.2726 C   0  0  0  0  0  0  0  0  0  0  0  0
    1.9855   -0.9174   -1.5441 N   0  0  0  0  0  0  0  0  0  0  0  0
    0.7316   -1.0870   -1.9645 C   0  0  0  0  0  0  0  0  0  0  0  0
   -0.2987   -0.9971   -1.0446 C   0  0  0  0  0  0  0  0  0  0  0  0
   -1.6097   -1.1658   -1.4366 C   0  0  0  0  0  0  0  0  0  0  0  0
   -2.5938   -1.0673   -0.4883 C   0  0  0  0  0  0  0  0  0  0  0  0
   -3.9296   -1.2303   -0.8384 O   0  0  0  0  0  0  0  0  0  0  0  0
   -4.7866   -0.1618   -0.6022 C   0  0  0  0  0  0  0  0  0  0  0  0
   -5.8802   -0.2913    0.2353 C   0  0  0  0  0  0  0  0  0  0  0  0
   -6.6813    0.8009    0.4226 C   0  0  0  0  0  0  0  0  0  0  0  0
   -6.4557    2.0203   -0.1782 C   0  0  0  0  0  0  0  0  0  0  0  0
   -7.2806    3.0550    0.0470 F   0  0  0  0  0  0  0  0  0  0  0  0
   -5.3652    2.1424   -1.0108 C   0  0  0  0  0  0  0  0  0  0  0  0
   -4.5392    1.0407   -1.2127 C   0  0  0  0  0  0  0  0  0  0  0  0
   -3.4654    1.1470   -2.0275 F   0  0  0  0  0  0  0  0  0  0  0  0
   -2.2391   -0.8038    0.8196 C   0  0  0  0  0  0  0  0  0  0  0  0
   -3.1459   -0.7114    1.7024 O   0  0  0  0  0  0  0  0  0  0  0  0
   -0.9611   -0.6414    1.1902 N   0  0  0  0  0  0  0  0  0  0  0  0
   -0.6386   -0.3665    2.5741 C   0  0  0  0  0  0  0  0  0  0  0  0
    0.0302   -0.7350    0.2659 C   0  0  0  0  0  0  0  0  0  0  0  0
    1.3111   -0.5781    0.6051 N   0  0  0  0  0  0  0  0  0  0  0  0
   -0.4624   -0.1011    1.0056 O   0  0  0  0  0  0  0  0  0  0  0  0
   -0.4406    0.8001    0.1297 C   0  0  0  0  0  0  0  0  0  0  0  0
   -1.6534    1.1451   -0.6928 C   0  0  0  0  0  0  0  0  0  0  0  0
   -2.8209    0.2705   -0.2999 C   0  0  0  0  0  0  0  0  0  0  0  0
   -2.4091   -1.0583   -0.5454 O   0  0  0  0  0  0  0  0  0  0  0  0
    0.7759    1.5002   -0.0722 N   0  0  0  0  0  0  0  0  0  0  0  0
    1.9292    1.1753    0.7069 C   0  0  0  0  0  0  0  0  0  0  0  0
    2.3733   -0.2504    0.5414 C   0  0  0  0  0  0  0  0  0  0  0  0
    2.7079   -0.5671   -0.7734 O   0  0  0  0  0  0  0  0  0  0  0  0
  2  1  1  6
  2  3  1  0
  3  4  1  0
  4  5  1  0
  5  6  2  0
  6  7  1  0
  7  8  2  0
  2  9  1  0
  9 10  1  0
 10 11  2  0
 11 12  1  0
 12 13  2  0
 13 14  1  0
 14 15  2  0
 15 16  1  0
 16 17  1  0
 17 18  2  0
 18 19  1  0
 19 20  2  0
 20 21  1  0
 20 22  1  0
 22 23  2  0
 23 24  1  0
 15 25  1  0
 25 26  2  0
 25 27  1  0
 27 28  1  0
 27 29  1  0
 29 30  2  0
 31 32  2  0
 32 33  1  0
 33 34  1  0
 34 35  1  0
 32 36  1  0
 36 37  1  0
 37 38  1  0
 38 39  1  0
  8  4  1  0
 30 10  1  0
 29 13  1  0
 23 17  1  0
M  END

