
     RDKit          3D

 42 44  0  0  0  0  0  0  0  0999 V2000
    4.6537   -1.6857   -1.2727 C   0  0  0  0  0  0  0  0  0  0  0  0
    4.7729   -0.1994   -1.9965 C   0  0  2  0  0  0  0  0  0  0  0  0
    6.2054    0.1761   -1.2711 C   0  0  0  0  0  0  0  0  0  0  0  0
    6.0261    0.1603    0.1286 N   0  0  0  0  0  0  0  0  0  0  0  0
    6.2043   -0.9324    0.8889 N   0  0  0  0  0  0  0  0  0  0  0  0
    5.9688   -0.6639    2.1657 C   0  0  0  0  0  0  0  0  0  0  0  0
    5.6325    0.6272    2.2270 N   0  0  0  0  0  0  0  0  0  0  0  0
    5.6747    1.0960    0.9947 N   0  0  0  0  0  0  0  0  0  0  0  0
    3.8841    0.5227   -0.9159 N   0  0  0  0  0  0  0  0  0  0  0  0
    2.5889   -0.0513   -0.8933 C   0  0  0  0  0  0  0  0  0  0  0  0
    2.1772   -1.0558   -1.6708 N   0  0  0  0  0  0  0  0  0  0  0  0
    0.9154   -1.5275   -1.5653 C   0  0  0  0  0  0  0  0  0  0  0  0
    0.0128   -0.9992   -0.6635 C   0  0  0  0  0  0  0  0  0  0  0  0
   -1.2827   -1.4484   -0.5217 C   0  0  0  0  0  0  0  0  0  0  0  0
   -2.1342   -0.8673    0.4080 C   0  0  0  0  0  0  0  0  0  0  0  0
   -3.4443   -1.2865    0.5849 O   0  0  0  0  0  0  0  0  0  0  0  0
   -4.5341   -0.4454    0.4001 C   0  0  0  0  0  0  0  0  0  0  0  0
   -5.4372   -0.1553    1.4028 C   0  0  0  0  0  0  0  0  0  0  0  0
   -6.5133    0.6843    1.1944 C   0  0  0  0  0  0  0  0  0  0  0  0
   -6.7459    1.2800   -0.0273 C   0  0  0  0  0  0  0  0  0  0  0  0
   -7.8043    2.1086   -0.2402 F   0  0  0  0  0  0  0  0  0  0  0  0
   -5.8433    0.9900   -1.0293 C   0  0  0  0  0  0  0  0  0  0  0  0
   -4.7672    0.1509   -0.8225 C   0  0  0  0  0  0  0  0  0  0  0  0
   -3.8736   -0.1379   -1.8099 F   0  0  0  0  0  0  0  0  0  0  0  0
   -1.6698    0.1678    1.1915 C   0  0  0  0  0  0  0  0  0  0  0  0
   -2.4533    0.6837    2.0289 O   0  0  0  0  0  0  0  0  0  0  0  0
   -0.4037    0.6015    1.0478 N   0  0  0  0  0  0  0  0  0  0  0  0
    0.0460    1.6935    1.8920 C   0  0  0  0  0  0  0  0  0  0  0  0
    0.4429    0.0366    0.1357 C   0  0  0  0  0  0  0  0  0  0  0  0
    1.7013    0.4765    0.0014 N   0  0  0  0  0  0  0  0  0  0  0  0
   -3.4477   -0.5542    1.5042 N   0  0  0  0  0  0  0  0  0  0  0  0
   -2.7965   -0.6306    0.2611 C   0  0  0  0  0  0  0  0  0  0  0  0
   -3.0214    0.2206   -0.6187 O   0  0  0  0  0  0  0  0  0  0  0  0
   -1.8416   -1.7184   -0.0132 C   0  0  0  0  0  0  0  0  0  0  0  0
   -1.2629   -1.6009   -1.4124 C   0  0  0  0  0  0  0  0  0  0  0  0
   -0.5511   -0.2715   -1.5126 C   0  0  0  0  0  0  0  0  0  0  0  0
    0.5220   -0.2447   -0.4962 C   0  0  0  0  0  0  0  0  0  0  0  0
    0.7044   -1.2293    0.2607 O   0  0  0  0  0  0  0  0  0  0  0  0
    1.3641    0.8785   -0.3493 N   0  0  0  0  0  0  0  0  0  0  0  0
    2.4193    0.9639    0.6152 C   0  0  0  0  0  0  0  0  0  0  0  0
    3.4565   -0.1319    0.4122 C   0  0  0  0  0  0  0  0  0  0  0  0
    4.4550   -0.0264    1.3490 O   0  0  0  0  0  0  0  0  0  0  0  0
  2  1  1  1
  2  3  1  0
  3  4  1  0
  4  5  1  0
  5  6  2  0
  6  7  1  0
  7  8  2  0
  2  9  1  0
  9 10  1  0
 10 11  2  0
 11 12  1  0
 12 13  2  0
 13 14  1  0
 14 15  2  0
 15 16  1  0
 16 17  1  0
 17 18  2  0
 18 19  1  0
 19 20  2  0
 20 21  1  0
 20 22  1  0
 22 23  2  0
 23 24  1  0
 15 25  1  0
 25 26  2  0
 25 27  1  0
 27 28  1  0
 27 29  1  0
 29 30  2  0
 31 32  1  0
 32 33  2  0
 32 34  1  0
 34 35  1  0
 35 36  1  0
 36 37  1  0
 37 38  2  0
 37 39  1  0
 39 40  1  0
 40 41  1  0
 41 42  1  0
  8  4  1  0
 30 10  1  0
 29 13  1  0
 23 17  1  0
M  END

