
     RDKit          3D

 45 48  0  0  0  0  0  0  0  0999 V2000
    6.0437   -0.6825    0.4411 C   0  0  0  0  0  0  0  0  0  0  0  0
    4.7347   -0.6000   -0.2806 C   0  0  0  0  0  0  0  0  0  0  0  0
    4.7361    0.4013   -1.4027 C   0  0  0  0  0  0  0  0  0  0  0  0
    3.6357   -0.4052    0.7011 C   0  0  0  0  0  0  0  0  0  0  0  0
    2.2956   -0.3125    0.0674 C   0  0  0  0  0  0  0  0  0  0  0  0
    2.2512   -0.4069   -1.1858 O   0  0  0  0  0  0  0  0  0  0  0  0
    1.1032   -0.1281    0.7905 N   0  0  0  0  0  0  0  0  0  0  0  0
   -0.1857   -0.0429    0.1308 C   0  0  0  0  0  0  0  0  0  0  0  0
   -1.2865    0.1563    1.1638 C   0  0  0  0  0  0  0  0  0  0  0  0
   -2.6202    0.2472    0.5167 C   0  0  0  0  0  0  0  0  0  0  0  0
   -3.1369    1.4657    0.1123 C   0  0  0  0  0  0  0  0  0  0  0  0
   -4.3759    1.5405   -0.4875 C   0  0  0  0  0  0  0  0  0  0  0  0
   -5.1495    0.4364   -0.7126 C   0  0  0  0  0  0  0  0  0  0  0  0
   -4.6351   -0.7878   -0.3086 C   0  0  0  0  0  0  0  0  0  0  0  0
   -3.4102   -0.8815    0.2870 C   0  0  0  0  0  0  0  0  0  0  0  0
   -2.9704   -2.1231    0.1286 C   0  0  0  0  0  0  0  0  0  0  0  0
   -4.0974   -0.9376    0.4039 C   0  0  2  0  0  0  0  0  0  0  0  0
   -5.3093   -1.8071   -0.3233 C   0  0  0  0  0  0  0  0  0  0  0  0
   -6.4223   -0.8808   -0.1680 N   0  0  0  0  0  0  0  0  0  0  0  0
   -7.2145   -0.9054    0.8958 N   0  0  0  0  0  0  0  0  0  0  0  0
   -8.1237    0.0608    0.7307 C   0  0  0  0  0  0  0  0  0  0  0  0
   -7.8729    0.6645   -0.4367 N   0  0  0  0  0  0  0  0  0  0  0  0
   -6.8228    0.0794   -0.9857 N   0  0  0  0  0  0  0  0  0  0  0  0
   -3.7336   -0.1631   -0.9216 N   0  0  0  0  0  0  0  0  0  0  0  0
   -2.3933    0.2535   -0.9412 C   0  0  0  0  0  0  0  0  0  0  0  0
   -1.9267    0.9358   -2.0204 N   0  0  0  0  0  0  0  0  0  0  0  0
   -0.6542    1.3607   -2.0978 C   0  0  0  0  0  0  0  0  0  0  0  0
    0.1842    1.0828   -1.0352 C   0  0  0  0  0  0  0  0  0  0  0  0
    1.4946    1.4926   -1.0593 C   0  0  0  0  0  0  0  0  0  0  0  0
    2.2979    1.1907    0.0298 C   0  0  0  0  0  0  0  0  0  0  0  0
    3.6082    1.6389   -0.0709 O   0  0  0  0  0  0  0  0  0  0  0  0
    4.7083    0.7914   -0.0390 C   0  0  0  0  0  0  0  0  0  0  0  0
    5.6923    0.8943    0.9217 C   0  0  0  0  0  0  0  0  0  0  0  0
    6.7769    0.0416    0.9345 C   0  0  0  0  0  0  0  0  0  0  0  0
    6.9427   -0.9561   -0.0028 C   0  0  0  0  0  0  0  0  0  0  0  0
    8.0147   -1.7858    0.0240 F   0  0  0  0  0  0  0  0  0  0  0  0
    5.9576   -1.0571   -0.9624 C   0  0  0  0  0  0  0  0  0  0  0  0
    4.8717   -0.2055   -0.9775 C   0  0  0  0  0  0  0  0  0  0  0  0
    3.8961   -0.3044   -1.9268 F   0  0  0  0  0  0  0  0  0  0  0  0
    1.8055    0.5078    1.0946 C   0  0  0  0  0  0  0  0  0  0  0  0
    2.5721    0.2582    2.0573 O   0  0  0  0  0  0  0  0  0  0  0  0
    0.5267    0.1057    1.1225 N   0  0  0  0  0  0  0  0  0  0  0  0
    0.0014   -0.6281    2.2689 C   0  0  0  0  0  0  0  0  0  0  0  0
   -0.2568    0.3957    0.0691 C   0  0  0  0  0  0  0  0  0  0  0  0
   -1.5529   -0.0004    0.0746 N   0  0  0  0  0  0  0  0  0  0  0  0
  1  2  1  0
  2  3  1  0
  2  4  1  0
  4  5  1  0
  5  6  2  0
  5  7  1  0
  7  8  1  0
  8  9  1  0
  9 10  1  0
 10 11  2  0
 11 12  1  0
 12 13  2  0
 13 14  1  0
 14 15  2  0
 17 16  1  6
 17 18  1  0
 18 19  1  0
 19 20  1  0
 20 21  2  0
 21 22  1  0
 22 23  2  0
 17 24  1  0
 24 25  1  0
 25 26  2  0
 26 27  1  0
 27 28  2  0
 28 29  1  0
 29 30  2  0
 30 31  1  0
 31 32  1  0
 32 33  2  0
 33 34  1  0
 34 35  2  0
 35 36  1  0
 35 37  1  0
 37 38  2  0
 38 39  1  0
 30 40  1  0
 40 41  2  0
 40 42  1  0
 42 43  1  0
 42 44  1  0
 44 45  2  0
 15 10  1  0
 23 19  1  0
 45 25  1  0
 44 28  1  0
 38 32  1  0
M  END

