
     RDKit          3D

 53 58  0  0  0  0  0  0  0  0999 V2000
    3.5825   -1.9923    2.9146 C   0  0  0  0  0  0  0  0  0  0  0  0
    4.6504   -1.2552    1.8825 C   0  0  2  0  0  0  0  0  0  0  0  0
    3.9503    0.2338    2.0529 C   0  0  0  0  0  0  0  0  0  0  0  0
    4.7533    1.0958    1.1978 N   0  0  0  0  0  0  0  0  0  0  0  0
    5.8174    1.7425    1.6093 N   0  0  0  0  0  0  0  0  0  0  0  0
    6.3090    2.4311    0.5847 C   0  0  0  0  0  0  0  0  0  0  0  0
    5.5347    2.2046   -0.4753 N   0  0  0  0  0  0  0  0  0  0  0  0
    4.5848    1.3822   -0.0786 N   0  0  0  0  0  0  0  0  0  0  0  0
    3.8484   -1.6547    0.5910 N   0  0  0  0  0  0  0  0  0  0  0  0
    2.5285   -1.2552    0.4641 C   0  0  0  0  0  0  0  0  0  0  0  0
    1.8523   -0.5249    1.3933 N   0  0  0  0  0  0  0  0  0  0  0  0
    0.5689   -0.1759    1.1953 C   0  0  0  0  0  0  0  0  0  0  0  0
   -0.0931   -0.5467    0.0516 C   0  0  0  0  0  0  0  0  0  0  0  0
   -1.4057   -0.2204   -0.2088 C   0  0  0  0  0  0  0  0  0  0  0  0
   -2.0260   -0.6071   -1.3550 C   0  0  0  0  0  0  0  0  0  0  0  0
   -3.3389   -0.3134   -1.6771 O   0  0  0  0  0  0  0  0  0  0  0  0
   -4.1903    0.4173   -0.8644 C   0  0  0  0  0  0  0  0  0  0  0  0
   -4.7459    1.5996   -1.3231 C   0  0  0  0  0  0  0  0  0  0  0  0
   -5.5993    2.3460   -0.5279 C   0  0  0  0  0  0  0  0  0  0  0  0
   -5.9278    1.9403    0.7498 C   0  0  0  0  0  0  0  0  0  0  0  0
   -6.7643    2.6628    1.5417 F   0  0  0  0  0  0  0  0  0  0  0  0
   -5.3773    0.7644    1.2104 C   0  0  0  0  0  0  0  0  0  0  0  0
   -4.5249    0.0214    0.4126 C   0  0  0  0  0  0  0  0  0  0  0  0
   -3.9698   -1.1436    0.8484 F   0  0  0  0  0  0  0  0  0  0  0  0
   -1.3079   -1.3478   -2.2757 C   0  0  0  0  0  0  0  0  0  0  0  0
   -1.8637   -1.7259   -3.3623 O   0  0  0  0  0  0  0  0  0  0  0  0
   -0.0322   -1.6696   -2.0313 N   0  0  0  0  0  0  0  0  0  0  0  0
    0.7383   -2.4463   -2.9852 C   0  0  0  0  0  0  0  0  0  0  0  0
    0.5858   -1.2861   -0.8929 C   0  0  0  0  0  0  0  0  0  0  0  0
    1.8624   -1.6050   -0.6426 N   0  0  0  0  0  0  0  0  0  0  0  0
    0.2633   -1.7337    1.6357 O   0  0  0  0  0  0  0  0  0  0  0  0
    0.2591   -1.4112    0.4223 C   0  0  0  0  0  0  0  0  0  0  0  0
   -0.7550   -0.4368   -0.0452 C   0  0  0  0  0  0  0  0  0  0  0  0
   -1.6218    0.0066    1.0935 C   0  0  0  0  0  0  0  0  0  0  0  0
   -2.6480    0.9832    0.6577 C   0  0  0  0  0  0  0  0  0  0  0  0
   -2.6773    2.3502    0.8395 C   0  0  0  0  0  0  0  0  0  0  0  0
   -3.7973    2.8337    0.2817 N   0  0  0  0  0  0  0  0  0  0  0  0
   -4.5238    1.8369   -0.2706 C   0  0  0  0  0  0  0  0  0  0  0  0
   -5.7277    1.8435   -0.9439 C   0  0  0  0  0  0  0  0  0  0  0  0
   -6.2701    0.6656   -1.4183 C   0  0  0  0  0  0  0  0  0  0  0  0
   -5.5431   -0.4856   -1.1777 C   0  0  0  0  0  0  0  0  0  0  0  0
   -4.3511   -0.4990   -0.5122 C   0  0  0  0  0  0  0  0  0  0  0  0
   -3.8002    0.6885   -0.0314 C   0  0  0  0  0  0  0  0  0  0  0  0
    1.2407   -2.0168   -0.4050 N   0  0  0  0  0  0  0  0  0  0  0  0
    2.2093   -2.9660    0.1181 C   0  0  0  0  0  0  0  0  0  0  0  0
    3.0851   -2.3851    1.1924 C   0  0  0  0  0  0  0  0  0  0  0  0
    3.8839   -1.2263    0.7271 C   0  0  0  0  0  0  0  0  0  0  0  0
    5.1308   -1.4782    0.2041 C   0  0  0  0  0  0  0  0  0  0  0  0
    5.9563   -0.4760   -0.2584 C   0  0  0  0  0  0  0  0  0  0  0  0
    5.5562    0.8504   -0.2147 C   0  0  0  0  0  0  0  0  0  0  0  0
    6.3654    1.8823   -0.6732 O   0  0  0  0  0  0  0  0  0  0  0  0
    4.2941    1.0898    0.3161 C   0  0  0  0  0  0  0  0  0  0  0  0
    3.4714    0.0842    0.7778 C   0  0  0  0  0  0  0  0  0  0  0  0
  2  1  1  1
  2  3  1  0
  3  4  1  0
  4  5  1  0
  5  6  2  0
  6  7  1  0
  7  8  2  0
  2  9  1  0
  9 10  1  0
 10 11  2  0
 11 12  1  0
 12 13  2  0
 13 14  1  0
 14 15  2  0
 15 16  1  0
 16 17  1  0
 17 18  2  0
 18 19  1  0
 19 20  2  0
 20 21  1  0
 20 22  1  0
 22 23  2  0
 23 24  1  0
 15 25  1  0
 25 26  2  0
 25 27  1  0
 27 28  1  0
 27 29  1  0
 29 30  2  0
 31 32  2  0
 32 33  1  0
 33 34  1  0
 34 35  1  0
 35 36  2  0
 36 37  1  0
 37 38  1  0
 38 39  2  0
 39 40  1  0
 40 41  2  0
 41 42  1  0
 42 43  2  0
 32 44  1  0
 44 45  1  0
 45 46  1  0
 46 47  1  0
 47 48  2  0
 48 49  1  0
 49 50  2  0
 50 51  1  0
 50 52  1  0
 52 53  2  0
  8  4  1  0
 30 10  1  0
 43 35  1  0
 53 47  1  0
 29 13  1  0
 43 38  1  0
 23 17  1  0
M  END

