
     RDKit          3D

 42 45  0  0  0  0  0  0  0  0999 V2000
    4.0279    1.3603    0.4071 C   0  0  0  0  0  0  0  0  0  0  0  0
    2.7832    0.5095    0.3522 C   0  0  0  0  0  0  0  0  0  0  0  0
    3.0720   -0.9425    0.6538 C   0  0  0  0  0  0  0  0  0  0  0  0
    2.0519    0.6760   -0.9609 C   0  0  0  0  0  0  0  0  0  0  0  0
    0.8735   -0.1788   -0.9180 N   0  0  0  0  0  0  0  0  0  0  0  0
   -0.0962    0.0291    0.0821 C   0  0  0  0  0  0  0  0  0  0  0  0
   -0.0386    0.8982    0.9557 O   0  0  0  0  0  0  0  0  0  0  0  0
   -1.3498   -0.9596    0.0438 C   0  0  2  0  0  0  0  0  0  0  0  0
   -2.2112   -0.0163   -1.0260 C   0  0  0  0  0  0  0  0  0  0  0  0
   -3.6078   -0.2429   -0.4795 C   0  0  0  0  0  0  0  0  0  0  0  0
   -3.4200   -0.7957    0.9082 C   0  0  0  0  0  0  0  0  0  0  0  0
   -2.0850   -0.3375    1.2939 N   0  0  0  0  0  0  0  0  0  0  0  0
    4.4164   -2.0383   -0.6519 C   0  0  0  0  0  0  0  0  0  0  0  0
    5.0052   -0.8261   -1.6158 C   0  0  2  0  0  0  0  0  0  0  0  0
    6.2221   -0.4345   -0.5748 C   0  0  0  0  0  0  0  0  0  0  0  0
    5.6542   -0.0544    0.6632 N   0  0  0  0  0  0  0  0  0  0  0  0
    5.3063    1.1839    0.9878 N   0  0  0  0  0  0  0  0  0  0  0  0
    4.7968    1.2098    2.2344 C   0  0  0  0  0  0  0  0  0  0  0  0
    4.8434   -0.0608    2.6676 N   0  0  0  0  0  0  0  0  0  0  0  0
    5.3667   -0.8055    1.6969 N   0  0  0  0  0  0  0  0  0  0  0  0
    3.9972    0.2517   -1.0545 N   0  0  0  0  0  0  0  0  0  0  0  0
    2.6255   -0.1061   -1.2709 C   0  0  0  0  0  0  0  0  0  0  0  0
    2.2365   -1.2250   -1.8789 N   0  0  0  0  0  0  0  0  0  0  0  0
    0.9283   -1.4696   -2.0333 C   0  0  0  0  0  0  0  0  0  0  0  0
   -0.0480   -0.5986   -1.5826 C   0  0  0  0  0  0  0  0  0  0  0  0
   -1.3912   -0.8176   -1.7239 C   0  0  0  0  0  0  0  0  0  0  0  0
   -2.2912    0.1209   -1.2356 C   0  0  0  0  0  0  0  0  0  0  0  0
   -3.6505   -0.0849   -1.3701 O   0  0  0  0  0  0  0  0  0  0  0  0
   -4.4054   -0.1501   -0.2067 C   0  0  0  0  0  0  0  0  0  0  0  0
   -5.4249    0.7476    0.0149 C   0  0  0  0  0  0  0  0  0  0  0  0
   -6.1794    0.6751    1.1879 C   0  0  0  0  0  0  0  0  0  0  0  0
   -5.9437   -0.2735    2.1512 C   0  0  0  0  0  0  0  0  0  0  0  0
   -6.6991   -0.3158    3.2839 F   0  0  0  0  0  0  0  0  0  0  0  0
   -4.9205   -1.1707    1.9235 C   0  0  0  0  0  0  0  0  0  0  0  0
   -4.1687   -1.1028    0.7607 C   0  0  0  0  0  0  0  0  0  0  0  0
   -3.1507   -1.9782    0.5107 F   0  0  0  0  0  0  0  0  0  0  0  0
   -1.8679    1.2742   -0.6086 C   0  0  0  0  0  0  0  0  0  0  0  0
   -2.7086    2.1139   -0.1723 O   0  0  0  0  0  0  0  0  0  0  0  0
   -0.5400    1.4514   -0.4900 N   0  0  0  0  0  0  0  0  0  0  0  0
   -0.0682    2.6556    0.1653 C   0  0  0  0  0  0  0  0  0  0  0  0
    0.3669    0.5611   -0.9523 C   0  0  0  0  0  0  0  0  0  0  0  0
    1.6925    0.7526   -0.8261 N   0  0  0  0  0  0  0  0  0  0  0  0
  1  2  1  0
  2  3  1  0
  2  4  1  0
  4  5  1  0
  5  6  1  0
  6  7  2  0
  8  6  1  1
  8  9  1  0
  9 10  1  0
 10 11  1  0
 11 12  1  0
 14 13  1  1
 14 15  1  0
 15 16  1  0
 16 17  1  0
 17 18  2  0
 18 19  1  0
 19 20  2  0
 14 21  1  0
 21 22  1  0
 22 23  2  0
 23 24  1  0
 24 25  2  0
 25 26  1  0
 26 27  2  0
 27 28  1  0
 28 29  1  0
 29 30  2  0
 30 31  1  0
 31 32  2  0
 32 33  1  0
 32 34  1  0
 34 35  2  0
 35 36  1  0
 27 37  1  0
 37 38  2  0
 37 39  1  0
 39 40  1  0
 39 41  1  0
 41 42  2  0
 12  8  1  0
 20 16  1  0
 42 22  1  0
 41 25  1  0
 35 29  1  0
M  END

