
     RDKit          3D

 43 45  0  0  0  0  0  0  0  0999 V2000
    3.0579    1.8089    0.0699 C   0  0  0  0  0  0  0  0  0  0  0  0
    3.8548    0.6672   -0.4112 C   0  0  0  0  0  0  0  0  0  0  0  0
    4.4769   -0.1225    0.7422 C   0  0  0  0  0  0  0  0  0  0  0  0
    3.2331   -0.1815   -1.4214 C   0  0  0  0  0  0  0  0  0  0  0  0
    1.9934   -0.8899   -1.1677 C   0  0  0  0  0  0  0  0  0  0  0  0
    0.7712   -0.1527   -0.8806 C   0  0  0  0  0  0  0  0  0  0  0  0
    0.7240    1.0868   -0.9458 O   0  0  0  0  0  0  0  0  0  0  0  0
   -0.4651   -0.7906   -0.5028 N   0  0  0  0  0  0  0  0  0  0  0  0
   -1.6573   -0.0129   -0.2262 C   0  0  0  0  0  0  0  0  0  0  0  0
   -2.7490   -1.0210    0.1354 C   0  0  0  0  0  0  0  0  0  0  0  0
   -4.0027   -0.3009    0.4325 C   0  0  0  0  0  0  0  0  0  0  0  0
   -5.1603   -1.0420    0.7951 N   0  0  0  0  0  0  0  0  0  0  0  0
   -4.0769    0.9510    0.3742 O   0  0  0  0  0  0  0  0  0  0  0  0
   -5.9653    1.1567    0.3601 C   0  0  0  0  0  0  0  0  0  0  0  0
   -4.5010    0.7628   -0.2448 C   0  0  2  0  0  0  0  0  0  0  0  0
   -4.3903   -0.6064    0.6340 C   0  0  0  0  0  0  0  0  0  0  0  0
   -5.5143   -1.3845    0.2215 N   0  0  0  0  0  0  0  0  0  0  0  0
   -5.4780   -2.2470   -0.7889 N   0  0  0  0  0  0  0  0  0  0  0  0
   -6.6680   -2.8250   -0.9423 C   0  0  0  0  0  0  0  0  0  0  0  0
   -7.4593   -2.2950    0.0103 N   0  0  0  0  0  0  0  0  0  0  0  0
   -6.7464   -1.4371    0.6922 N   0  0  0  0  0  0  0  0  0  0  0  0
   -3.7460    1.6534    0.7790 N   0  0  0  0  0  0  0  0  0  0  0  0
   -2.3446    1.6958    0.7122 C   0  0  0  0  0  0  0  0  0  0  0  0
   -1.7144    2.4699    1.6042 N   0  0  0  0  0  0  0  0  0  0  0  0
   -0.3692    2.5964    1.6448 C   0  0  0  0  0  0  0  0  0  0  0  0
    0.4401    1.9210    0.7515 C   0  0  0  0  0  0  0  0  0  0  0  0
    1.8181    2.0080    0.7411 C   0  0  0  0  0  0  0  0  0  0  0  0
    2.5606    1.3098   -0.1743 C   0  0  0  0  0  0  0  0  0  0  0  0
    3.9280    1.4106   -0.1669 O   0  0  0  0  0  0  0  0  0  0  0  0
    4.6558    0.2539    0.0330 C   0  0  0  0  0  0  0  0  0  0  0  0
    5.5312   -0.1474   -0.9442 C   0  0  0  0  0  0  0  0  0  0  0  0
    6.2970   -1.3065   -0.8054 C   0  0  0  0  0  0  0  0  0  0  0  0
    6.1676   -2.0624    0.3417 C   0  0  0  0  0  0  0  0  0  0  0  0
    6.9234   -3.1833    0.4505 F   0  0  0  0  0  0  0  0  0  0  0  0
    5.2998   -1.6818    1.3316 C   0  0  0  0  0  0  0  0  0  0  0  0
    4.5437   -0.5143    1.1661 C   0  0  0  0  0  0  0  0  0  0  0  0
    3.6946   -0.1576    2.1540 F   0  0  0  0  0  0  0  0  0  0  0  0
    1.8897    0.5281   -1.0722 C   0  0  0  0  0  0  0  0  0  0  0  0
    2.5240   -0.1477   -1.9512 O   0  0  0  0  0  0  0  0  0  0  0  0
    0.5449    0.4594   -1.0423 N   0  0  0  0  0  0  0  0  0  0  0  0
   -0.1171   -0.3867   -2.0195 C   0  0  0  0  0  0  0  0  0  0  0  0
   -0.2257    1.1259   -0.1631 C   0  0  0  0  0  0  0  0  0  0  0  0
   -1.5791    1.0310   -0.1646 N   0  0  0  0  0  0  0  0  0  0  0  0
  1  2  1  0
  2  3  1  0
  2  4  1  0
  4  5  1  0
  5  6  1  0
  6  7  2  0
  6  8  1  0
  8  9  1  0
  9 10  1  0
 10 11  1  0
 11 12  1  0
 11 13  2  0
 15 14  1  1
 15 16  1  0
 16 17  1  0
 17 18  1  0
 18 19  2  0
 19 20  1  0
 20 21  2  0
 15 22  1  0
 22 23  1  0
 23 24  2  0
 24 25  1  0
 25 26  2  0
 26 27  1  0
 27 28  2  0
 28 29  1  0
 29 30  1  0
 30 31  2  0
 31 32  1  0
 32 33  2  0
 33 34  1  0
 33 35  1  0
 35 36  2  0
 36 37  1  0
 28 38  1  0
 38 39  2  0
 38 40  1  0
 40 41  1  0
 40 42  1  0
 42 43  2  0
 21 17  1  0
 43 23  1  0
 42 26  1  0
 36 30  1  0
M  END

