
     RDKit          3D

 44 47  0  0  0  0  0  0  0  0999 V2000
    4.3488    0.9143    0.2965 C   0  0  0  0  0  0  0  0  0  0  0  0
    4.1409   -0.5546    0.3896 C   0  0  0  0  0  0  0  0  0  0  0  0
    3.9451   -1.2844   -0.8848 C   0  0  0  0  0  0  0  0  0  0  0  0
    3.2793   -0.9300    1.5283 C   0  0  0  0  0  0  0  0  0  0  0  0
    1.9546   -0.3911    1.5412 N   0  0  0  0  0  0  0  0  0  0  0  0
    0.9526   -0.5906    0.5601 C   0  0  0  0  0  0  0  0  0  0  0  0
    1.2440   -1.3130   -0.4259 O   0  0  0  0  0  0  0  0  0  0  0  0
   -0.4097    0.0234    0.6682 C   0  0  0  0  0  0  0  0  0  0  0  0
   -1.2139   -0.3961   -0.5415 C   0  0  0  0  0  0  0  0  0  0  0  0
   -2.5734    0.1546   -0.5347 C   0  0  0  0  0  0  0  0  0  0  0  0
   -3.6882   -0.4561    0.0298 C   0  0  0  0  0  0  0  0  0  0  0  0
   -4.7122    0.3674   -0.1801 N   0  0  0  0  0  0  0  0  0  0  0  0
   -4.2938    1.4681   -0.8506 C   0  0  0  0  0  0  0  0  0  0  0  0
   -2.9741    1.3161   -1.0585 N   0  0  0  0  0  0  0  0  0  0  0  0
    5.6334   -2.1144   -0.2568 C   0  0  0  0  0  0  0  0  0  0  0  0
    4.5405   -1.0359   -0.8447 C   0  0  2  0  0  0  0  0  0  0  0  0
    5.0873    0.1804    0.1381 C   0  0  0  0  0  0  0  0  0  0  0  0
    6.4691    0.2833   -0.2917 N   0  0  0  0  0  0  0  0  0  0  0  0
    6.9752    1.0478   -1.2553 N   0  0  0  0  0  0  0  0  0  0  0  0
    8.3027    0.8470   -1.3358 C   0  0  0  0  0  0  0  0  0  0  0  0
    8.6110   -0.0677   -0.3917 N   0  0  0  0  0  0  0  0  0  0  0  0
    7.4695   -0.3740    0.2089 N   0  0  0  0  0  0  0  0  0  0  0  0
    3.4244   -1.4642    0.1714 N   0  0  0  0  0  0  0  0  0  0  0  0
    2.2543   -0.6951   -0.0506 C   0  0  0  0  0  0  0  0  0  0  0  0
    2.1035    0.2545   -0.9778 N   0  0  0  0  0  0  0  0  0  0  0  0
    0.9500    0.9522   -1.1327 C   0  0  0  0  0  0  0  0  0  0  0  0
   -0.1187    0.6782   -0.3036 C   0  0  0  0  0  0  0  0  0  0  0  0
   -1.3366    1.3242   -0.3713 C   0  0  0  0  0  0  0  0  0  0  0  0
   -2.3655    0.9897    0.5016 C   0  0  0  0  0  0  0  0  0  0  0  0
   -3.5856    1.6299    0.4410 O   0  0  0  0  0  0  0  0  0  0  0  0
   -4.7909    1.0022    0.1990 C   0  0  0  0  0  0  0  0  0  0  0  0
   -5.8512    1.0161    1.0762 C   0  0  0  0  0  0  0  0  0  0  0  0
   -7.0395    0.3727    0.7905 C   0  0  0  0  0  0  0  0  0  0  0  0
   -7.2335   -0.3193   -0.3862 C   0  0  0  0  0  0  0  0  0  0  0  0
   -8.3927   -0.9570   -0.6842 F   0  0  0  0  0  0  0  0  0  0  0  0
   -6.1680   -0.3298   -1.2611 C   0  0  0  0  0  0  0  0  0  0  0  0
   -4.9797    0.3115   -0.9795 C   0  0  0  0  0  0  0  0  0  0  0  0
   -3.9656    0.2563   -1.8991 F   0  0  0  0  0  0  0  0  0  0  0  0
   -2.2075    0.0075    1.4596 C   0  0  0  0  0  0  0  0  0  0  0  0
   -3.1369   -0.3087    2.2629 O   0  0  0  0  0  0  0  0  0  0  0  0
   -1.0081   -0.5976    1.4935 N   0  0  0  0  0  0  0  0  0  0  0  0
   -0.8442   -1.6405    2.5128 C   0  0  0  0  0  0  0  0  0  0  0  0
    0.0155   -0.2989    0.6611 C   0  0  0  0  0  0  0  0  0  0  0  0
    1.1878   -0.9505    0.7578 N   0  0  0  0  0  0  0  0  0  0  0  0
  1  2  1  0
  2  3  1  0
  2  4  1  0
  4  5  1  0
  5  6  1  0
  6  7  2  0
  6  8  1  0
  8  9  1  0
  9 10  1  0
 10 11  2  0
 11 12  1  0
 12 13  1  0
 13 14  2  0
 16 15  1  1
 16 17  1  0
 17 18  1  0
 18 19  1  0
 19 20  2  0
 20 21  1  0
 21 22  2  0
 16 23  1  0
 23 24  1  0
 24 25  2  0
 25 26  1  0
 26 27  2  0
 27 28  1  0
 28 29  2  0
 29 30  1  0
 30 31  1  0
 31 32  2  0
 32 33  1  0
 33 34  2  0
 34 35  1  0
 34 36  1  0
 36 37  2  0
 37 38  1  0
 29 39  1  0
 39 40  2  0
 39 41  1  0
 41 42  1  0
 41 43  1  0
 43 44  2  0
 14 10  1  0
 22 18  1  0
 44 24  1  0
 43 27  1  0
 37 31  1  0
M  END

