
     RDKit          3D

 43 45  0  0  0  0  0  0  0  0999 V2000
    3.9954   -1.1555    1.5005 C   0  0  0  0  0  0  0  0  0  0  0  0
    3.8653    0.2853    1.0821 C   0  0  0  0  0  0  0  0  0  0  0  0
    4.8954    0.7050    0.0802 C   0  0  0  0  0  0  0  0  0  0  0  0
    2.4529    0.6288    0.6543 C   0  0  0  0  0  0  0  0  0  0  0  0
    2.1077   -0.2621   -0.5128 C   0  0  0  0  0  0  0  0  0  0  0  0
    0.7834   -0.0416   -1.0247 N   0  0  0  0  0  0  0  0  0  0  0  0
   -0.3124   -0.2397   -0.1514 C   0  0  0  0  0  0  0  0  0  0  0  0
   -0.1149   -0.5956    1.0261 O   0  0  0  0  0  0  0  0  0  0  0  0
   -1.7003   -0.0283   -0.6211 C   0  0  0  0  0  0  0  0  0  0  0  0
   -2.6843   -0.3015    0.4881 C   0  0  0  0  0  0  0  0  0  0  0  0
   -4.0832   -0.0773   -0.0232 C   0  0  0  0  0  0  0  0  0  0  0  0
   -4.1846    1.3608   -0.4753 C   0  0  0  0  0  0  0  0  0  0  0  0
   -5.0203   -0.2782    1.1685 C   0  0  0  0  0  0  0  0  0  0  0  0
    4.4813    0.3552    0.9135 C   0  0  0  0  0  0  0  0  0  0  0  0
    4.8656   -1.0062    0.0385 C   0  0  2  0  0  0  0  0  0  0  0  0
    5.8320   -0.1452   -1.0036 C   0  0  0  0  0  0  0  0  0  0  0  0
    6.8042    0.3884   -0.0762 N   0  0  0  0  0  0  0  0  0  0  0  0
    7.9223   -0.2394    0.2353 N   0  0  0  0  0  0  0  0  0  0  0  0
    8.5670    0.5321    1.1043 C   0  0  0  0  0  0  0  0  0  0  0  0
    7.8103    1.6339    1.3053 N   0  0  0  0  0  0  0  0  0  0  0  0
    6.7400    1.5190    0.5717 N   0  0  0  0  0  0  0  0  0  0  0  0
    3.6121   -0.8901   -0.9193 N   0  0  0  0  0  0  0  0  0  0  0  0
    2.3526   -0.9357   -0.2760 C   0  0  0  0  0  0  0  0  0  0  0  0
    2.1546   -1.0641    1.0250 N   0  0  0  0  0  0  0  0  0  0  0  0
    0.9088   -1.0968    1.5392 C   0  0  0  0  0  0  0  0  0  0  0  0
   -0.2190   -0.9989    0.7424 C   0  0  0  0  0  0  0  0  0  0  0  0
   -1.5043   -1.0290    1.2369 C   0  0  0  0  0  0  0  0  0  0  0  0
   -2.5899   -0.9271    0.3939 C   0  0  0  0  0  0  0  0  0  0  0  0
   -3.8777   -0.9569    0.8852 O   0  0  0  0  0  0  0  0  0  0  0  0
   -4.7326    0.1195    0.6838 C   0  0  0  0  0  0  0  0  0  0  0  0
   -4.3604    1.2585   -0.0022 C   0  0  0  0  0  0  0  0  0  0  0  0
   -5.2343    2.3107   -0.1849 C   0  0  0  0  0  0  0  0  0  0  0  0
   -6.5209    2.2775    0.3076 C   0  0  0  0  0  0  0  0  0  0  0  0
   -7.3836    3.3162    0.1272 F   0  0  0  0  0  0  0  0  0  0  0  0
   -6.8930    1.1396    0.9930 C   0  0  0  0  0  0  0  0  0  0  0  0
   -6.0232    0.0837    1.1790 C   0  0  0  0  0  0  0  0  0  0  0  0
   -6.3954   -1.0461    1.8606 F   0  0  0  0  0  0  0  0  0  0  0  0
   -2.3394   -0.7947   -0.9547 C   0  0  0  0  0  0  0  0  0  0  0  0
   -3.3387   -0.7027   -1.7133 O   0  0  0  0  0  0  0  0  0  0  0  0
   -1.0737   -0.7683   -1.4097 N   0  0  0  0  0  0  0  0  0  0  0  0
   -0.8390   -0.6284   -2.8308 C   0  0  0  0  0  0  0  0  0  0  0  0
    0.0046   -0.8656   -0.6114 C   0  0  0  0  0  0  0  0  0  0  0  0
    1.2699   -0.8394   -1.0636 N   0  0  0  0  0  0  0  0  0  0  0  0
  1  2  1  0
  2  3  1  0
  2  4  1  0
  4  5  1  0
  5  6  1  0
  6  7  1  0
  7  8  2  0
  7  9  1  0
  9 10  1  0
 10 11  1  0
 11 12  1  0
 11 13  1  0
 15 14  1  1
 15 16  1  0
 16 17  1  0
 17 18  1  0
 18 19  2  0
 19 20  1  0
 20 21  2  0
 15 22  1  0
 22 23  1  0
 23 24  2  0
 24 25  1  0
 25 26  2  0
 26 27  1  0
 27 28  2  0
 28 29  1  0
 29 30  1  0
 30 31  2  0
 31 32  1  0
 32 33  2  0
 33 34  1  0
 33 35  1  0
 35 36  2  0
 36 37  1  0
 28 38  1  0
 38 39  2  0
 38 40  1  0
 40 41  1  0
 40 42  1  0
 42 43  2  0
 21 17  1  0
 43 23  1  0
 42 26  1  0
 36 30  1  0
M  END

