
     RDKit          3D

 36 38  0  0  0  0  0  0  0  0999 V2000
   -2.0939    0.1154   -0.5724 C   0  0  0  0  0  0  0  0  0  0  0  0
   -1.4934   -0.2833    0.7528 C   0  0  0  0  0  0  0  0  0  0  0  0
   -0.1344   -0.7104    0.5067 N   0  0  0  0  0  0  0  0  0  0  0  0
    0.8748    0.0777   -0.0509 C   0  0  0  0  0  0  0  0  0  0  0  0
    2.2323   -0.4510   -0.2621 C   0  0  0  0  0  0  0  0  0  0  0  0
    0.6146    1.2515   -0.3741 O   0  0  0  0  0  0  0  0  0  0  0  0
    2.2562   -3.0531    0.8609 C   0  0  0  0  0  0  0  0  0  0  0  0
    3.5257   -2.6117    1.8295 C   0  0  2  0  0  0  0  0  0  0  0  0
    3.4360   -4.0001    2.7325 C   0  0  0  0  0  0  0  0  0  0  0  0
    2.1538   -4.0694    3.3116 N   0  0  0  0  0  0  0  0  0  0  0  0
    1.0429   -4.6112    2.8884 N   0  0  0  0  0  0  0  0  0  0  0  0
    0.0521   -4.4136    3.7926 C   0  0  0  0  0  0  0  0  0  0  0  0
    0.6058   -3.7255    4.7896 N   0  0  0  0  0  0  0  0  0  0  0  0
    1.8424   -3.5328    4.4867 N   0  0  0  0  0  0  0  0  0  0  0  0
    2.6280   -1.7190    2.7778 N   0  0  0  0  0  0  0  0  0  0  0  0
    1.8947   -0.7119    2.0680 C   0  0  0  0  0  0  0  0  0  0  0  0
    1.1279    0.0769    2.8514 N   0  0  0  0  0  0  0  0  0  0  0  0
    0.3604    1.0616    2.3097 C   0  0  0  0  0  0  0  0  0  0  0  0
    0.3969    1.2222    0.9107 C   0  0  0  0  0  0  0  0  0  0  0  0
   -0.3646    2.1828    0.3117 C   0  0  0  0  0  0  0  0  0  0  0  0
   -0.3472    2.3382   -1.0613 C   0  0  0  0  0  0  0  0  0  0  0  0
   -1.1508    3.3398   -1.6403 O   0  0  0  0  0  0  0  0  0  0  0  0
   -2.1575    2.9385   -2.5355 C   0  0  0  0  0  0  0  0  0  0  0  0
   -2.0871    3.4391   -3.8032 C   0  0  0  0  0  0  0  0  0  0  0  0
   -3.0415    3.0995   -4.7663 C   0  0  0  0  0  0  0  0  0  0  0  0
   -4.0415    2.2343   -4.3406 C   0  0  0  0  0  0  0  0  0  0  0  0
   -4.9908    1.8836   -5.2620 F   0  0  0  0  0  0  0  0  0  0  0  0
   -4.1077    1.7278   -3.0515 C   0  0  0  0  0  0  0  0  0  0  0  0
   -3.1570    2.0827   -2.1400 C   0  0  0  0  0  0  0  0  0  0  0  0
   -3.1888    1.5963   -0.8584 F   0  0  0  0  0  0  0  0  0  0  0  0
    0.4552    1.5040   -1.8057 C   0  0  0  0  0  0  0  0  0  0  0  0
    0.4935    1.6222   -3.0498 O   0  0  0  0  0  0  0  0  0  0  0  0
    1.2130    0.5472   -1.1975 N   0  0  0  0  0  0  0  0  0  0  0  0
    2.0484   -0.3141   -2.0136 C   0  0  0  0  0  0  0  0  0  0  0  0
    1.1764    0.4183    0.1293 C   0  0  0  0  0  0  0  0  0  0  0  0
    1.9249   -0.5526    0.7393 N   0  0  0  0  0  0  0  0  0  0  0  0
  1  2  1  0
  2  3  1  0
  3  4  1  0
  4  5  1  0
  4  6  2  0
  8  7  1  6
  8  9  1  0
  9 10  1  0
 10 11  1  0
 11 12  2  0
 12 13  1  0
 13 14  2  0
  8 15  1  0
 15 16  1  0
 16 17  2  0
 17 18  1  0
 18 19  2  0
 19 20  1  0
 20 21  2  0
 21 22  1  0
 22 23  1  0
 23 24  2  0
 24 25  1  0
 25 26  2  0
 26 27  1  0
 26 28  1  0
 28 29  2  0
 29 30  1  0
 21 31  1  0
 31 32  2  0
 31 33  1  0
 33 34  1  0
 33 35  1  0
 35 36  2  0
 14 10  1  0
 36 16  1  0
 35 19  1  0
 29 23  1  0
M  END

