
     RDKit          3D

 42 44  0  0  0  0  0  0  0  0999 V2000
    3.5632    0.8956    1.3475 C   0  0  0  0  0  0  0  0  0  0  0  0
    3.6128    0.5474   -0.1232 C   0  0  0  0  0  0  0  0  0  0  0  0
    4.9167   -0.0642   -0.5384 C   0  0  0  0  0  0  0  0  0  0  0  0
    2.5088   -0.4593   -0.4619 C   0  0  0  0  0  0  0  0  0  0  0  0
    1.2385    0.1692   -0.1337 N   0  0  0  0  0  0  0  0  0  0  0  0
   -0.0131   -0.4386   -0.3034 C   0  0  0  0  0  0  0  0  0  0  0  0
   -0.0472   -1.6044   -0.7697 O   0  0  0  0  0  0  0  0  0  0  0  0
   -1.2292    0.3281    0.0770 C   0  0  0  0  0  0  0  0  0  0  0  0
   -2.4309   -0.5430   -0.2014 C   0  0  0  0  0  0  0  0  0  0  0  0
   -3.6515    0.2070    0.1726 C   0  0  0  0  0  0  0  0  0  0  0  0
   -4.9084   -0.4004    0.0033 O   0  0  0  0  0  1  0  0  0  0  0  0
   -3.5599    1.3626    0.6313 O   0  0  0  0  0  0  0  0  0  0  0  0
   -4.7063   -2.1682    1.0026 C   0  0  0  0  0  0  0  0  0  0  0  0
   -4.8175   -0.9944    2.1565 C   0  0  2  0  0  0  0  0  0  0  0  0
   -6.2303   -0.3938    1.5737 C   0  0  0  0  0  0  0  0  0  0  0  0
   -6.0367    0.0371    0.2378 N   0  0  0  0  0  0  0  0  0  0  0  0
   -5.6543    1.2853   -0.0754 N   0  0  0  0  0  0  0  0  0  0  0  0
   -5.5474    1.4247   -1.3899 C   0  0  0  0  0  0  0  0  0  0  0  0
   -5.8694    0.2375   -1.9254 N   0  0  0  0  0  0  0  0  0  0  0  0
   -6.1560   -0.5676   -0.9256 N   0  0  0  0  0  0  0  0  0  0  0  0
   -3.8995    0.0079    1.3659 N   0  0  0  0  0  0  0  0  0  0  0  0
   -2.5927   -0.4574    1.1062 C   0  0  0  0  0  0  0  0  0  0  0  0
   -2.0975   -1.6484    1.4719 N   0  0  0  0  0  0  0  0  0  0  0  0
   -0.8124   -1.9932    1.1648 C   0  0  0  0  0  0  0  0  0  0  0  0
   -0.0151   -1.1200    0.4770 C   0  0  0  0  0  0  0  0  0  0  0  0
    1.2993   -1.3909    0.1255 C   0  0  0  0  0  0  0  0  0  0  0  0
    2.0766   -0.4896   -0.5681 C   0  0  0  0  0  0  0  0  0  0  0  0
    3.3382   -0.8257   -0.8706 O   0  0  0  0  0  0  0  0  0  0  0  0
    4.5235   -0.2449   -0.5356 C   0  0  0  0  0  0  0  0  0  0  0  0
    5.3339    0.2002   -1.5713 C   0  0  0  0  0  0  0  0  0  0  0  0
    6.5537    0.7999   -1.2775 C   0  0  0  0  0  0  0  0  0  0  0  0
    6.9250    0.9362    0.0324 C   0  0  0  0  0  0  0  0  0  0  0  0
    8.1219    1.5259    0.2867 F   0  0  0  0  0  0  0  0  0  0  0  0
    6.1057    0.4868    1.0647 C   0  0  0  0  0  0  0  0  0  0  0  0
    4.8957   -0.1085    0.7836 C   0  0  0  0  0  0  0  0  0  0  0  0
    4.0488   -0.5679    1.7156 F   0  0  0  0  0  0  0  0  0  0  0  0
    1.5017    0.7145   -0.9109 C   0  0  0  0  0  0  0  0  0  0  0  0
    2.1524    1.6007   -1.5517 O   0  0  0  0  0  0  0  0  0  0  0  0
    0.2309    0.9832   -0.5742 N   0  0  0  0  0  0  0  0  0  0  0  0
   -0.3489    2.2576   -0.9475 C   0  0  0  0  0  0  0  0  0  0  0  0
   -0.5274    0.0878    0.1097 C   0  0  0  0  0  0  0  0  0  0  0  0
   -1.7959    0.3852    0.4325 N   0  0  0  0  0  0  0  0  0  0  0  0
  1  2  1  0
  2  3  1  0
  2  4  1  0
  4  5  1  0
  5  6  1  0
  6  7  2  0
  6  8  1  0
  8  9  1  0
  9 10  1  0
 10 11  1  0
 10 12  2  0
 14 13  1  6
 14 15  1  0
 15 16  1  0
 16 17  1  0
 17 18  2  0
 18 19  1  0
 19 20  2  0
 14 21  1  0
 21 22  1  0
 22 23  2  0
 23 24  1  0
 24 25  2  0
 25 26  1  0
 26 27  2  0
 27 28  1  0
 28 29  1  0
 29 30  2  0
 30 31  1  0
 31 32  2  0
 32 33  1  0
 32 34  1  0
 34 35  2  0
 35 36  1  0
 27 37  1  0
 37 38  2  0
 37 39  1  0
 39 40  1  0
 39 41  1  0
 41 42  2  0
 20 16  1  0
 42 22  1  0
 41 25  1  0
 35 29  1  0
M  RAD  1  11   2
M  END

