
     RDKit          3D

 49 53  0  0  0  0  0  0  0  0999 V2000
    4.5337    1.2190    2.0721 C   0  0  0  0  0  0  0  0  0  0  0  0
    4.2005   -0.0838    1.3617 C   0  0  0  0  0  0  0  0  0  0  0  0
    4.8770    0.2046   -0.1087 C   0  0  2  0  0  0  0  0  0  0  0  0
    3.9478    1.5230   -0.4128 C   0  0  0  0  0  0  0  0  0  0  0  0
    3.9498   -0.8946   -0.8824 C   0  0  0  0  0  0  0  0  0  0  0  0
    2.5642   -0.5684   -0.7415 C   0  0  0  0  0  0  0  0  0  0  0  0
    2.0360    0.4054   -0.1159 O   0  0  0  0  0  0  0  0  0  0  0  0
    1.6276   -1.4307   -1.3758 N   0  0  0  0  0  0  0  0  0  0  0  0
    0.2122   -1.2431   -1.3308 C   0  0  0  0  0  0  0  0  0  0  0  0
   -0.2086   -1.2855    0.1226 C   0  0  0  0  0  0  0  0  0  0  0  0
   -1.6932   -1.0901    0.1380 C   0  0  0  0  0  0  0  0  0  0  0  0
   -2.6673   -2.0455    0.3439 C   0  0  0  0  0  0  0  0  0  0  0  0
   -3.8799   -1.4494    0.2778 N   0  0  0  0  0  0  0  0  0  0  0  0
   -3.7276   -0.1297    0.0343 C   0  0  0  0  0  0  0  0  0  0  0  0
   -4.6259    0.9009   -0.1223 C   0  0  0  0  0  0  0  0  0  0  0  0
   -4.1224    2.1614   -0.3683 C   0  0  0  0  0  0  0  0  0  0  0  0
   -2.7808    2.3708   -0.4520 C   0  0  0  0  0  0  0  0  0  0  0  0
   -1.8729    1.3453   -0.2969 C   0  0  0  0  0  0  0  0  0  0  0  0
   -2.3702    0.0902   -0.0520 C   0  0  0  0  0  0  0  0  0  0  0  0
   -2.9722    2.1626   -2.2703 C   0  0  0  0  0  0  0  0  0  0  0  0
   -4.3450    1.3459   -1.8415 C   0  0  2  0  0  0  0  0  0  0  0  0
   -3.8284    1.0625   -0.3048 C   0  0  0  0  0  0  0  0  0  0  0  0
   -4.8940    0.3247    0.3266 N   0  0  0  0  0  0  0  0  0  0  0  0
   -5.9443    0.7010    0.9982 N   0  0  0  0  0  0  0  0  0  0  0  0
   -6.6275   -0.4089    1.3746 C   0  0  0  0  0  0  0  0  0  0  0  0
   -5.9588   -1.4853    0.9096 N   0  0  0  0  0  0  0  0  0  0  0  0
   -4.9175   -1.0134    0.2814 N   0  0  0  0  0  0  0  0  0  0  0  0
   -3.8408   -0.0162   -2.4236 N   0  0  0  0  0  0  0  0  0  0  0  0
   -2.6033   -0.5105   -1.9866 C   0  0  0  0  0  0  0  0  0  0  0  0
   -2.0831   -1.6630   -2.4150 N   0  0  0  0  0  0  0  0  0  0  0  0
   -0.8710   -2.1037   -1.9682 C   0  0  0  0  0  0  0  0  0  0  0  0
   -0.1654   -1.3555   -1.0612 C   0  0  0  0  0  0  0  0  0  0  0  0
    1.0647   -1.7169   -0.5525 C   0  0  0  0  0  0  0  0  0  0  0  0
    1.7058   -0.8817    0.3717 C   0  0  0  0  0  0  0  0  0  0  0  0
    2.9311   -1.1968    0.9074 O   0  0  0  0  0  0  0  0  0  0  0  0
    4.0583   -0.3834    0.7543 C   0  0  0  0  0  0  0  0  0  0  0  0
    3.9872    0.7960    0.0434 C   0  0  0  0  0  0  0  0  0  0  0  0
    5.0957    1.5989   -0.1089 C   0  0  0  0  0  0  0  0  0  0  0  0
    6.3209    1.2722    0.4336 C   0  0  0  0  0  0  0  0  0  0  0  0
    7.4075    2.0882    0.2673 F   0  0  0  0  0  0  0  0  0  0  0  0
    6.3877    0.0948    1.1421 C   0  0  0  0  0  0  0  0  0  0  0  0
    5.2794   -0.7149    1.2984 C   0  0  0  0  0  0  0  0  0  0  0  0
    5.3424   -1.8861    2.0022 F   0  0  0  0  0  0  0  0  0  0  0  0
    1.1138    0.2991    0.7751 C   0  0  0  0  0  0  0  0  0  0  0  0
    1.7121    1.0412    1.6134 O   0  0  0  0  0  0  0  0  0  0  0  0
   -0.0868    0.6329    0.2663 N   0  0  0  0  0  0  0  0  0  0  0  0
   -0.6705    1.8886    0.7229 C   0  0  0  0  0  0  0  0  0  0  0  0
   -0.7026   -0.1713   -0.6226 C   0  0  0  0  0  0  0  0  0  0  0  0
   -1.8953    0.1990   -1.1030 N   0  0  0  0  0  0  0  0  0  0  0  0
  1  2  1  0
  2  3  1  0
  3  4  1  6
  3  5  1  0
  5  6  1  0
  6  7  2  0
  6  8  1  0
  8  9  1  0
  9 10  1  0
 10 11  1  0
 11 12  2  0
 12 13  1  0
 13 14  1  0
 14 15  2  0
 15 16  1  0
 16 17  2  0
 17 18  1  0
 18 19  2  0
 21 20  1  6
 21 22  1  0
 22 23  1  0
 23 24  1  0
 24 25  2  0
 25 26  1  0
 26 27  2  0
 21 28  1  0
 28 29  1  0
 29 30  2  0
 30 31  1  0
 31 32  2  0
 32 33  1  0
 33 34  2  0
 34 35  1  0
 35 36  1  0
 36 37  2  0
 37 38  1  0
 38 39  2  0
 39 40  1  0
 39 41  1  0
 41 42  2  0
 42 43  1  0
 34 44  1  0
 44 45  2  0
 44 46  1  0
 46 47  1  0
 46 48  1  0
 48 49  2  0
 19 11  1  0
 27 23  1  0
 49 29  1  0
 19 14  1  0
 48 32  1  0
 42 36  1  0
M  END

