
     RDKit          3D

 43 45  0  0  0  0  0  0  0  0999 V2000
    3.6591   -0.2288   -1.4955 C   0  0  0  0  0  0  0  0  0  0  0  0
    3.4932   -1.8753   -0.7268 S   0  0  0  0  0  0  0  0  0  0  0  0
    1.8205   -1.9101    0.0297 C   0  0  0  0  0  0  0  0  0  0  0  0
    1.8654   -0.8798    1.1532 C   0  0  0  0  0  0  0  0  0  0  0  0
    2.1888    0.4428    0.4943 C   0  0  0  0  0  0  0  0  0  0  0  0
    1.1622    0.7773   -0.4726 N   0  0  0  0  0  0  0  0  0  0  0  0
   -0.2025    0.9411   -0.0833 C   0  0  0  0  0  0  0  0  0  0  0  0
   -0.4286    0.7702    1.1647 O   0  0  0  0  0  0  0  0  0  0  0  0
   -1.2835    1.2804   -1.0255 C   0  0  0  0  0  0  0  0  0  0  0  0
   -2.5807    1.3704   -0.2397 C   0  0  0  0  0  0  0  0  0  0  0  0
   -2.8196    0.0373    0.3960 C   0  0  0  0  0  0  0  0  0  0  0  0
   -2.9419   -1.0888   -0.5822 C   0  0  0  0  0  0  0  0  0  0  0  0
   -3.9324    0.0188    1.3877 C   0  0  0  0  0  0  0  0  0  0  0  0
    3.9582    0.1702    0.2754 C   0  0  0  0  0  0  0  0  0  0  0  0
    4.0951   -1.3325    1.0189 C   0  0  2  0  0  0  0  0  0  0  0  0
    5.7212   -1.4348    0.6135 C   0  0  0  0  0  0  0  0  0  0  0  0
    6.2022   -0.2352    1.3177 N   0  0  0  0  0  0  0  0  0  0  0  0
    6.6332   -0.2161    2.5685 N   0  0  0  0  0  0  0  0  0  0  0  0
    6.9797    1.0324    2.8505 C   0  0  0  0  0  0  0  0  0  0  0  0
    6.7599    1.7923    1.7608 N   0  0  0  0  0  0  0  0  0  0  0  0
    6.2799    0.9908    0.8258 N   0  0  0  0  0  0  0  0  0  0  0  0
    3.6459   -2.1388   -0.2626 N   0  0  0  0  0  0  0  0  0  0  0  0
    2.3800   -1.8804   -0.7868 C   0  0  0  0  0  0  0  0  0  0  0  0
    1.8433   -2.4674   -1.8589 N   0  0  0  0  0  0  0  0  0  0  0  0
    0.5996   -2.1617   -2.3108 C   0  0  0  0  0  0  0  0  0  0  0  0
   -0.1391   -1.2177   -1.6490 C   0  0  0  0  0  0  0  0  0  0  0  0
   -1.4256   -0.8359   -2.0363 C   0  0  0  0  0  0  0  0  0  0  0  0
   -2.0960    0.1196   -1.3152 C   0  0  0  0  0  0  0  0  0  0  0  0
   -3.3619    0.5051   -1.6843 O   0  0  0  0  0  0  0  0  0  0  0  0
   -4.4252    0.3457   -0.8050 C   0  0  0  0  0  0  0  0  0  0  0  0
   -4.2824   -0.1931    0.4560 C   0  0  0  0  0  0  0  0  0  0  0  0
   -5.3404   -0.3477    1.3210 C   0  0  0  0  0  0  0  0  0  0  0  0
   -6.5966    0.0527    0.9107 C   0  0  0  0  0  0  0  0  0  0  0  0
   -7.6494   -0.0908    1.7461 F   0  0  0  0  0  0  0  0  0  0  0  0
   -6.7421    0.5952   -0.3579 C   0  0  0  0  0  0  0  0  0  0  0  0
   -5.6764    0.7457   -1.2165 C   0  0  0  0  0  0  0  0  0  0  0  0
   -5.9014    1.2834   -2.4369 F   0  0  0  0  0  0  0  0  0  0  0  0
   -1.5109    0.7002   -0.2188 C   0  0  0  0  0  0  0  0  0  0  0  0
   -2.0929    1.5829    0.4721 O   0  0  0  0  0  0  0  0  0  0  0  0
   -0.2577    0.3453    0.1792 N   0  0  0  0  0  0  0  0  0  0  0  0
    0.3883    0.9364    1.3287 C   0  0  0  0  0  0  0  0  0  0  0  0
    0.3909   -0.5968   -0.5400 C   0  0  0  0  0  0  0  0  0  0  0  0
    1.6210   -0.9589   -0.1660 N   0  0  0  0  0  0  0  0  0  0  0  0
  1  2  1  0
  2  3  1  0
  3  4  1  0
  4  5  1  0
  5  6  1  0
  6  7  1  0
  7  8  2  0
  7  9  1  0
  9 10  1  0
 10 11  1  0
 11 12  1  0
 11 13  1  0
 15 14  1  6
 15 16  1  0
 16 17  1  0
 17 18  1  0
 18 19  2  0
 19 20  1  0
 20 21  2  0
 15 22  1  0
 22 23  1  0
 23 24  2  0
 24 25  1  0
 25 26  2  0
 26 27  1  0
 27 28  2  0
 28 29  1  0
 29 30  1  0
 30 31  2  0
 31 32  1  0
 32 33  2  0
 33 34  1  0
 33 35  1  0
 35 36  2  0
 36 37  1  0
 28 38  1  0
 38 39  2  0
 38 40  1  0
 40 41  1  0
 40 42  1  0
 42 43  2  0
 21 17  1  0
 43 23  1  0
 42 26  1  0
 36 30  1  0
M  END

