
     RDKit          3D

 46 49  0  0  0  0  0  0  0  0999 V2000
    5.8664    1.2267    0.5675 C   0  0  0  0  0  0  0  0  0  0  0  0
    4.4691    0.3879    0.8561 C   0  0  2  0  0  0  0  0  0  0  0  0
    4.6739   -0.5816   -0.4730 C   0  0  0  0  0  0  0  0  0  0  0  0
    5.9227   -1.2549   -0.2488 N   0  0  0  0  0  0  0  0  0  0  0  0
    7.0860   -0.7644   -0.6569 N   0  0  0  0  0  0  0  0  0  0  0  0
    8.0874   -1.5900   -0.3195 C   0  0  0  0  0  0  0  0  0  0  0  0
    7.5126   -2.6230    0.3185 N   0  0  0  0  0  0  0  0  0  0  0  0
    6.2044   -2.3949    0.3471 N   0  0  0  0  0  0  0  0  0  0  0  0
    3.5795    1.4260    0.0728 N   0  0  0  0  0  0  0  0  0  0  0  0
    2.1971    1.1256    0.0328 C   0  0  0  0  0  0  0  0  0  0  0  0
    1.7234    0.0313    0.6289 N   0  0  0  0  0  0  0  0  0  0  0  0
    0.3988   -0.2919    0.6124 C   0  0  0  0  0  0  0  0  0  0  0  0
   -0.4845    0.5498   -0.0491 C   0  0  0  0  0  0  0  0  0  0  0  0
   -1.8527    0.2547   -0.0900 C   0  0  0  0  0  0  0  0  0  0  0  0
   -2.7273    1.0948   -0.7490 C   0  0  0  0  0  0  0  0  0  0  0  0
   -4.0763    0.9022   -0.8498 O   0  0  0  0  0  0  0  0  0  0  0  0
   -4.8240   -0.1104   -0.3486 C   0  0  0  0  0  0  0  0  0  0  0  0
   -5.8571    0.0201    0.5452 C   0  0  0  0  0  0  0  0  0  0  0  0
   -6.5523   -1.0816    0.9902 C   0  0  0  0  0  0  0  0  0  0  0  0
   -6.2546   -2.3659    0.5687 C   0  0  0  0  0  0  0  0  0  0  0  0
   -6.9301   -3.4522    0.9990 F   0  0  0  0  0  0  0  0  0  0  0  0
   -5.2191   -2.4897   -0.3263 C   0  0  0  0  0  0  0  0  0  0  0  0
   -4.5315   -1.3885   -0.7648 C   0  0  0  0  0  0  0  0  0  0  0  0
   -3.5167   -1.6212   -1.6566 F   0  0  0  0  0  0  0  0  0  0  0  0
   -2.1732    2.2116   -1.3459 C   0  0  0  0  0  0  0  0  0  0  0  0
   -2.9387    3.0179   -1.9663 O   0  0  0  0  0  0  0  0  0  0  0  0
   -0.8517    2.4839   -1.2985 N   0  0  0  0  0  0  0  0  0  0  0  0
   -0.2820    3.6693   -1.9351 C   0  0  0  0  0  0  0  0  0  0  0  0
    0.0155    1.6780   -0.6617 C   0  0  0  0  0  0  0  0  0  0  0  0
    1.3351    1.9305   -0.6025 N   0  0  0  0  0  0  0  0  0  0  0  0
    6.4068   -0.7304   -1.4416 N   0  0  0  0  0  4  0  0  0  0  0  0
    6.3263   -0.2487   -0.0740 C   0  0  0  0  0  0  0  0  0  0  0  0
    4.9108    0.1460    0.2368 C   0  0  0  0  0  0  0  0  0  0  0  0
    4.5017    1.2422   -0.7243 C   0  0  0  0  0  0  0  0  0  0  0  0
    3.0652    1.6428   -0.4090 C   0  0  0  0  0  0  0  0  0  0  0  0
    2.2204    0.4052   -0.5929 C   0  0  0  0  0  0  0  0  0  0  0  0
    0.8076    0.7484   -0.2955 C   0  0  0  0  0  0  0  0  0  0  0  0
    0.4314    1.8945    0.0481 O   0  0  0  0  0  0  0  0  0  0  0  0
   -0.1720   -0.2698   -0.4043 N   0  0  0  0  0  0  0  0  0  0  0  0
   -1.5525    0.0628   -0.1144 C   0  0  0  0  0  0  0  0  0  0  0  0
   -2.3556   -1.2148   -0.3146 C   0  0  0  0  0  0  0  0  0  0  0  0
   -3.7882   -0.9164   -0.0255 C   0  0  0  0  0  0  0  0  0  0  0  0
   -4.3759    0.2642    0.3584 C   0  0  0  0  0  0  0  0  0  0  0  0
   -5.6720    0.0349    0.4948 N   0  0  0  0  0  0  0  0  0  0  0  0
   -5.9622   -1.2338    0.2201 C   0  0  0  0  0  0  0  0  0  0  0  0
   -4.7917   -1.8270   -0.1037 N   0  0  0  0  0  0  0  0  0  0  0  0
  2  1  1  6
  2  3  1  0
  3  4  1  0
  4  5  1  0
  5  6  2  0
  6  7  1  0
  7  8  2  0
  2  9  1  0
  9 10  1  0
 10 11  2  0
 11 12  1  0
 12 13  2  0
 13 14  1  0
 14 15  2  0
 15 16  1  0
 16 17  1  0
 17 18  2  0
 18 19  1  0
 19 20  2  0
 20 21  1  0
 20 22  1  0
 22 23  2  0
 23 24  1  0
 15 25  1  0
 25 26  2  0
 25 27  1  0
 27 28  1  0
 27 29  1  0
 29 30  2  0
 31 32  1  0
 32 33  1  0
 33 34  1  0
 34 35  1  0
 35 36  1  0
 36 37  1  0
 37 38  2  0
 37 39  1  0
 39 40  1  0
 40 41  1  0
 41 42  1  0
 42 43  2  0
 43 44  1  0
 44 45  1  0
 45 46  2  0
  8  4  1  0
 30 10  1  0
 46 42  1  0
 29 13  1  0
 23 17  1  0
M  CHG  1  31   1
M  END

