
     RDKit          3D

 42 44  0  0  0  0  0  0  0  0999 V2000
    3.9380   -2.3382    1.9108 C   0  0  0  0  0  0  0  0  0  0  0  0
    4.9141   -1.5121    0.8706 C   0  0  2  0  0  0  0  0  0  0  0  0
    4.0310   -0.1338    0.9476 C   0  0  0  0  0  0  0  0  0  0  0  0
    4.7150    0.7855    0.0803 N   0  0  0  0  0  0  0  0  0  0  0  0
    5.6697    1.5993    0.4646 N   0  0  0  0  0  0  0  0  0  0  0  0
    6.1190    2.3388   -0.5663 C   0  0  0  0  0  0  0  0  0  0  0  0
    5.3943    1.9481   -1.6301 N   0  0  0  0  0  0  0  0  0  0  0  0
    4.5623    1.0192   -1.2180 N   0  0  0  0  0  0  0  0  0  0  0  0
    4.2134   -2.0633   -0.4119 N   0  0  0  0  0  0  0  0  0  0  0  0
    2.8088   -1.8725   -0.5115 C   0  0  0  0  0  0  0  0  0  0  0  0
    2.1074   -2.3055   -1.5742 N   0  0  0  0  0  0  0  0  0  0  0  0
    0.7867   -2.1535   -1.7133 C   0  0  0  0  0  0  0  0  0  0  0  0
    0.0551   -1.5172   -0.7280 C   0  0  0  0  0  0  0  0  0  0  0  0
   -1.2799   -1.3291   -0.8032 C   0  0  0  0  0  0  0  0  0  0  0  0
   -2.0122   -0.6683    0.2288 C   0  0  0  0  0  0  0  0  0  0  0  0
   -3.3073   -0.5772   -0.0165 O   0  0  0  0  0  0  0  0  0  0  0  0
   -4.2576    0.3083   -0.2249 C   0  0  0  0  0  0  0  0  0  0  0  0
   -4.8472    0.2730   -1.5274 C   0  0  0  0  0  0  0  0  0  0  0  0
   -5.8373    1.1243   -1.8809 C   0  0  0  0  0  0  0  0  0  0  0  0
   -6.3187    2.0607   -1.0008 C   0  0  0  0  0  0  0  0  0  0  0  0
   -7.3085    2.9240   -1.3313 F   0  0  0  0  0  0  0  0  0  0  0  0
   -5.7798    2.1275    0.2612 C   0  0  0  0  0  0  0  0  0  0  0  0
   -4.7627    1.2451    0.6103 C   0  0  0  0  0  0  0  0  0  0  0  0
   -4.3268    1.3691    1.8763 F   0  0  0  0  0  0  0  0  0  0  0  0
   -1.2574   -0.2469    1.2889 C   0  0  0  0  0  0  0  0  0  0  0  0
   -1.7976    0.3398    2.2492 O   0  0  0  0  0  0  0  0  0  0  0  0
    0.0885   -0.4509    1.3361 N   0  0  0  0  0  0  0  0  0  0  0  0
    0.8318    0.0253    2.4962 C   0  0  0  0  0  0  0  0  0  0  0  0
    0.7578   -1.0680    0.3663 C   0  0  0  0  0  0  0  0  0  0  0  0
    2.1000   -1.2516    0.4518 N   0  0  0  0  0  0  0  0  0  0  0  0
    4.4488    1.4773    0.4814 N   0  0  0  0  0  0  0  0  0  0  0  0
    3.2135    0.7751    0.6706 C   0  0  0  0  0  0  0  0  0  0  0  0
    2.2875    1.2730    1.3644 O   0  0  0  0  0  0  0  0  0  0  0  0
    3.0228   -0.5561    0.0410 C   0  0  0  0  0  0  0  0  0  0  0  0
    1.6569   -1.0932    0.3792 C   0  0  0  0  0  0  0  0  0  0  0  0
    0.6324   -0.1411   -0.1373 C   0  0  0  0  0  0  0  0  0  0  0  0
   -0.7497   -0.6132    0.1641 C   0  0  0  0  0  0  0  0  0  0  0  0
   -0.8769   -1.6992    0.7842 O   0  0  0  0  0  0  0  0  0  0  0  0
   -1.9068    0.0851   -0.2050 N   0  0  0  0  0  0  0  0  0  0  0  0
   -3.2038   -0.4663    0.1395 C   0  0  0  0  0  0  0  0  0  0  0  0
   -4.3285    0.4350   -0.3458 C   0  0  0  0  0  0  0  0  0  0  0  0
   -4.1962    0.5234   -1.7300 O   0  0  0  0  0  0  0  0  0  0  0  0
  2  1  1  1
  2  3  1  0
  3  4  1  0
  4  5  1  0
  5  6  2  0
  6  7  1  0
  7  8  2  0
  2  9  1  0
  9 10  1  0
 10 11  2  0
 11 12  1  0
 12 13  2  0
 13 14  1  0
 14 15  2  0
 15 16  1  0
 16 17  1  0
 17 18  2  0
 18 19  1  0
 19 20  2  0
 20 21  1  0
 20 22  1  0
 22 23  2  0
 23 24  1  0
 15 25  1  0
 25 26  2  0
 25 27  1  0
 27 28  1  0
 27 29  1  0
 29 30  2  0
 31 32  1  0
 32 33  2  0
 32 34  1  0
 34 35  1  0
 35 36  1  0
 36 37  1  0
 37 38  2  0
 37 39  1  0
 39 40  1  0
 40 41  1  0
 41 42  1  0
  8  4  1  0
 30 10  1  0
 29 13  1  0
 23 17  1  0
M  END

