
     RDKit          3D

 42 44  0  0  0  0  0  0  0  0999 V2000
   -5.7969    1.5286    2.0901 C   0  0  0  0  0  0  0  0  0  0  0  0
   -4.2346    1.9796    1.8290 C   0  0  2  0  0  0  0  0  0  0  0  0
   -4.4970    2.4225    0.2730 C   0  0  0  0  0  0  0  0  0  0  0  0
   -4.9728    1.2889   -0.4484 N   0  0  0  0  0  0  0  0  0  0  0  0
   -4.1664    0.4400   -1.0679 N   0  0  0  0  0  0  0  0  0  0  0  0
   -4.9570   -0.4989   -1.6384 C   0  0  0  0  0  0  0  0  0  0  0  0
   -6.2396   -0.1599   -1.3256 N   0  0  0  0  0  0  0  0  0  0  0  0
   -6.2330    0.9441   -0.5919 N   0  0  0  0  0  0  0  0  0  0  0  0
   -3.7536    0.5287    1.4866 N   0  0  0  0  0  0  0  0  0  0  0  0
   -2.4015    0.3958    1.1744 C   0  0  0  0  0  0  0  0  0  0  0  0
   -1.5887    1.4572    1.1748 N   0  0  0  0  0  0  0  0  0  0  0  0
   -0.2828    1.3278    0.8732 C   0  0  0  0  0  0  0  0  0  0  0  0
    0.2062    0.0936    0.5648 C   0  0  0  0  0  0  0  0  0  0  0  0
    1.5403   -0.0558    0.2539 C   0  0  0  0  0  0  0  0  0  0  0  0
    2.0018   -1.2980   -0.0499 C   0  0  0  0  0  0  0  0  0  0  0  0
    3.3197   -1.4970   -0.3656 O   0  0  0  0  0  0  0  0  0  0  0  0
    4.1931   -0.4295   -0.3771 C   0  0  0  0  0  0  0  0  0  0  0  0
    3.7489    0.8325   -0.0737 C   0  0  0  0  0  0  0  0  0  0  0  0
    4.6453    1.8733   -0.0946 C   0  0  0  0  0  0  0  0  0  0  0  0
    5.9551    1.6337   -0.4152 C   0  0  0  0  0  0  0  0  0  0  0  0
    6.8579    2.6683   -0.4384 F   0  0  0  0  0  0  0  0  0  0  0  0
    6.3789    0.3631   -0.7156 C   0  0  0  0  0  0  0  0  0  0  0  0
    5.5045   -0.6773   -0.6994 C   0  0  0  0  0  0  0  0  0  0  0  0
    5.9346   -1.9286   -0.9980 F   0  0  0  0  0  0  0  0  0  0  0  0
    1.1045   -2.3725   -0.0344 C   0  0  0  0  0  0  0  0  0  0  0  0
    1.5810   -3.5016   -0.3227 O   0  0  0  0  0  0  0  0  0  0  0  0
   -0.1729   -2.2020    0.2679 N   0  0  0  0  0  0  0  0  0  0  0  0
   -1.0711   -3.3355    0.2739 C   0  0  0  0  0  0  0  0  0  0  0  0
   -0.6536   -0.9806    0.5724 C   0  0  0  0  0  0  0  0  0  0  0  0
   -1.9504   -0.8403    0.8739 N   0  0  0  0  0  0  0  0  0  0  0  0
    4.1242    0.4513   -1.3536 N   0  0  0  0  0  4  0  0  0  0  0  0
    3.0307   -0.3196   -0.7923 C   0  0  0  0  0  0  0  0  0  0  0  0
    3.4021   -0.6063    0.6578 C   0  0  0  0  0  0  0  0  0  0  0  0
    2.3077   -1.4162    1.3342 C   0  0  0  0  0  0  0  0  0  0  0  0
    0.9943   -0.7059    1.3394 C   0  0  0  0  0  0  0  0  0  0  0  0
    0.5008   -0.4023   -0.0511 C   0  0  0  0  0  0  0  0  0  0  0  0
   -0.8032    0.3028   -0.0408 C   0  0  0  0  0  0  0  0  0  0  0  0
   -1.4064    0.6003    1.0296 O   0  0  0  0  0  0  0  0  0  0  0  0
   -1.4749    0.6982   -1.2306 N   0  0  0  0  0  0  0  0  0  0  0  0
   -2.7494    1.3867   -1.2019 C   0  0  0  0  0  0  0  0  0  0  0  0
   -3.8333    0.6124   -0.5366 C   0  0  0  0  0  0  0  0  0  0  0  0
   -4.0924   -0.6014   -1.1459 O   0  0  0  0  0  0  0  0  0  0  0  0
  2  1  1  1
  2  3  1  0
  3  4  1  0
  4  5  1  0
  5  6  2  0
  6  7  1  0
  7  8  2  0
  2  9  1  0
  9 10  1  0
 10 11  2  0
 11 12  1  0
 12 13  2  0
 13 14  1  0
 14 15  2  0
 15 16  1  0
 16 17  1  0
 17 18  2  0
 18 19  1  0
 19 20  2  0
 20 21  1  0
 20 22  1  0
 22 23  2  0
 23 24  1  0
 15 25  1  0
 25 26  2  0
 25 27  1  0
 27 28  1  0
 27 29  1  0
 29 30  2  0
 31 32  1  0
 32 33  1  0
 33 34  1  0
 34 35  1  0
 35 36  1  0
 36 37  1  0
 37 38  2  0
 37 39  1  0
 39 40  1  0
 40 41  1  0
 41 42  1  0
  8  4  1  0
 30 10  1  0
 29 13  1  0
 23 17  1  0
M  CHG  1  31   1
M  END

