
     RDKit          3D

 44 46  0  0  0  0  0  0  0  0999 V2000
    3.7324   -2.0208   -1.2313 C   0  0  0  0  0  0  0  0  0  0  0  0
    4.3867   -0.5399   -0.9042 C   0  0  2  0  0  0  0  0  0  0  0  0
    5.8237   -1.1889   -0.4448 C   0  0  0  0  0  0  0  0  0  0  0  0
    6.6320   -0.0244   -0.0848 N   0  0  0  0  0  0  0  0  0  0  0  0
    6.7424    0.5638    1.0979 N   0  0  0  0  0  0  0  0  0  0  0  0
    7.5880    1.6091    1.0174 C   0  0  0  0  0  0  0  0  0  0  0  0
    7.9969    1.6449   -0.2627 N   0  0  0  0  0  0  0  0  0  0  0  0
    7.4112    0.6608   -0.8939 N   0  0  0  0  0  0  0  0  0  0  0  0
    3.8448   -0.4813    0.5618 N   0  0  0  0  0  0  0  0  0  0  0  0
    2.4494   -0.5394    0.7402 C   0  0  0  0  0  0  0  0  0  0  0  0
    2.0647   -0.4834    2.0279 N   0  0  0  0  0  0  0  0  0  0  0  0
    0.7814   -0.5238    2.4175 C   0  0  0  0  0  0  0  0  0  0  0  0
   -0.1640   -0.6283    1.4185 C   0  0  0  0  0  0  0  0  0  0  0  0
   -1.5176   -0.6763    1.7367 C   0  0  0  0  0  0  0  0  0  0  0  0
   -2.4832   -0.7805    0.7604 C   0  0  0  0  0  0  0  0  0  0  0  0
   -3.8363   -0.8306    1.0419 O   0  0  0  0  0  0  0  0  0  0  0  0
   -4.6842    0.1568    0.5250 C   0  0  0  0  0  0  0  0  0  0  0  0
   -4.2277    1.1875   -0.2600 C   0  0  0  0  0  0  0  0  0  0  0  0
   -5.0847    2.1517   -0.7594 C   0  0  0  0  0  0  0  0  0  0  0  0
   -6.4375    2.1148   -0.4869 C   0  0  0  0  0  0  0  0  0  0  0  0
   -7.2689    3.0712   -0.9857 F   0  0  0  0  0  0  0  0  0  0  0  0
   -6.8910    1.0772    0.3021 C   0  0  0  0  0  0  0  0  0  0  0  0
   -6.0365    0.1132    0.8019 C   0  0  0  0  0  0  0  0  0  0  0  0
   -6.5185   -0.9009    1.5802 F   0  0  0  0  0  0  0  0  0  0  0  0
   -2.0479   -0.8350   -0.5440 C   0  0  0  0  0  0  0  0  0  0  0  0
   -2.9129   -0.9302   -1.4506 O   0  0  0  0  0  0  0  0  0  0  0  0
   -0.7207   -0.7879   -0.8553 N   0  0  0  0  0  0  0  0  0  0  0  0
   -0.3789   -0.8527   -2.2577 C   0  0  0  0  0  0  0  0  0  0  0  0
    0.2166   -0.6867    0.0939 C   0  0  0  0  0  0  0  0  0  0  0  0
    1.5403   -0.6398   -0.2178 N   0  0  0  0  0  0  0  0  0  0  0  0
   -3.5847   -2.2101    1.8364 N   0  0  0  0  0  0  0  0  0  0  0  0
   -3.6289   -1.1065    0.9480 C   0  0  0  0  0  0  0  0  0  0  0  0
   -4.7633   -0.6486    0.5910 N   0  0  0  0  0  4  0  0  0  0  0  0
   -2.4136   -0.5361    0.4758 N   0  0  0  0  0  0  0  0  0  0  0  0
   -2.5353    0.5967   -0.4354 C   0  0  0  0  0  0  0  0  0  0  0  0
   -1.1282    1.0254   -0.7954 C   0  0  0  0  0  0  0  0  0  0  0  0
   -0.4378    1.4143    0.5108 C   0  0  0  0  0  0  0  0  0  0  0  0
    0.9857    1.8544    0.2003 C   0  0  0  0  0  0  0  0  0  0  0  0
    1.6708    0.6958   -0.4420 C   0  0  0  0  0  0  0  0  0  0  0  0
    1.0864   -0.4073   -0.6461 O   0  0  0  0  0  0  0  0  0  0  0  0
    3.0335    0.7629   -0.8668 N   0  0  0  0  0  0  0  0  0  0  0  0
    3.6801   -0.3772   -1.4897 C   0  0  0  0  0  0  0  0  0  0  0  0
    3.6694   -1.5608   -0.5264 C   0  0  0  0  0  0  0  0  0  0  0  0
    4.3660   -1.1925    0.6396 O   0  0  0  0  0  0  0  0  0  0  0  0
  2  1  1  6
  2  3  1  0
  3  4  1  0
  4  5  1  0
  5  6  2  0
  6  7  1  0
  7  8  2  0
  2  9  1  0
  9 10  1  0
 10 11  2  0
 11 12  1  0
 12 13  2  0
 13 14  1  0
 14 15  2  0
 15 16  1  0
 16 17  1  0
 17 18  2  0
 18 19  1  0
 19 20  2  0
 20 21  1  0
 20 22  1  0
 22 23  2  0
 23 24  1  0
 15 25  1  0
 25 26  2  0
 25 27  1  0
 27 28  1  0
 27 29  1  0
 29 30  2  0
 31 32  1  0
 32 33  2  0
 32 34  1  0
 34 35  1  0
 35 36  1  0
 36 37  1  0
 37 38  1  0
 38 39  1  0
 39 40  2  0
 39 41  1  0
 41 42  1  0
 42 43  1  0
 43 44  1  0
  8  4  1  0
 30 10  1  0
 29 13  1  0
 23 17  1  0
M  CHG  1  33   1
M  END

