
     RDKit          3D

 43 45  0  0  0  0  0  0  0  0999 V2000
    2.5230   -0.0909    1.4385 C   0  0  0  0  0  0  0  0  0  0  0  0
    3.5912   -0.3456    0.3698 C   0  0  0  0  0  0  0  0  0  0  0  0
    4.8795    0.2953    0.8876 C   0  0  0  0  0  0  0  0  0  0  0  0
    3.2008    0.3919   -0.8875 C   0  0  0  0  0  0  0  0  0  0  0  0
    1.8532   -0.1366   -1.3438 C   0  0  0  0  0  0  0  0  0  0  0  0
    0.9041    0.1124   -0.2746 N   0  0  0  0  0  0  0  0  0  0  0  0
   -0.4617   -0.2637   -0.3802 C   0  0  0  0  0  0  0  0  0  0  0  0
   -0.8185   -0.8257   -1.4460 O   0  0  0  0  0  0  0  0  0  0  0  0
   -1.4275   -0.0144    0.6990 C   0  0  0  0  0  0  0  0  0  0  0  0
   -2.8108   -0.4880    0.3847 C   0  0  0  0  0  0  0  0  0  0  0  0
   -3.3750    0.1862   -0.8403 C   0  0  0  0  0  0  0  0  0  0  0  0
   -3.4725    1.6670   -0.7259 C   0  0  0  0  0  0  0  0  0  0  0  0
   -4.5857   -0.4879   -1.3850 C   0  0  0  0  0  0  0  0  0  0  0  0
    5.5651    1.6887   -2.0571 C   0  0  0  0  0  0  0  0  0  0  0  0
    3.9927    1.7468   -1.5523 C   0  0  2  0  0  0  0  0  0  0  0  0
    4.3874    2.2605   -0.0390 C   0  0  0  0  0  0  0  0  0  0  0  0
    5.2319    1.2776    0.5695 N   0  0  0  0  0  0  0  0  0  0  0  0
    4.7206    0.2866    1.2737 N   0  0  0  0  0  0  0  0  0  0  0  0
    5.6844   -0.5132    1.7504 C   0  0  0  0  0  0  0  0  0  0  0  0
    6.8094    0.0582    1.2891 N   0  0  0  0  0  0  0  0  0  0  0  0
    6.5329    1.1315    0.5816 N   0  0  0  0  0  0  0  0  0  0  0  0
    3.9384    0.2110   -1.2027 N   0  0  0  0  0  0  0  0  0  0  0  0
    2.6795   -0.2269   -0.6940 C   0  0  0  0  0  0  0  0  0  0  0  0
    2.4843   -1.5113   -0.3524 N   0  0  0  0  0  0  0  0  0  0  0  0
    1.3205   -1.9782    0.1313 C   0  0  0  0  0  0  0  0  0  0  0  0
    0.2497   -1.1241    0.2990 C   0  0  0  0  0  0  0  0  0  0  0  0
   -0.9744   -1.5592    0.7957 C   0  0  0  0  0  0  0  0  0  0  0  0
   -1.9934   -0.6605    0.9368 C   0  0  0  0  0  0  0  0  0  0  0  0
   -3.2349   -1.0256    1.4240 O   0  0  0  0  0  0  0  0  0  0  0  0
   -4.3818   -0.8486    0.6289 C   0  0  0  0  0  0  0  0  0  0  0  0
   -5.3709   -0.0379    1.1045 C   0  0  0  0  0  0  0  0  0  0  0  0
   -6.5012    0.1446    0.3351 C   0  0  0  0  0  0  0  0  0  0  0  0
   -6.6097   -0.4849   -0.8806 C   0  0  0  0  0  0  0  0  0  0  0  0
   -7.7433   -0.2798   -1.6133 F   0  0  0  0  0  0  0  0  0  0  0  0
   -5.6091   -1.3022   -1.3567 C   0  0  0  0  0  0  0  0  0  0  0  0
   -4.4990   -1.4716   -0.5837 C   0  0  0  0  0  0  0  0  0  0  0  0
   -3.4885   -2.2677   -1.0127 F   0  0  0  0  0  0  0  0  0  0  0  0
   -1.7629    0.6498    0.5779 C   0  0  0  0  0  0  0  0  0  0  0  0
   -2.6369    1.5424    0.6726 O   0  0  0  0  0  0  0  0  0  0  0  0
   -0.5537    1.0560    0.0924 N   0  0  0  0  0  0  0  0  0  0  0  0
   -0.3272    2.4342   -0.2798 C   0  0  0  0  0  0  0  0  0  0  0  0
    0.4528    0.1945   -0.0526 C   0  0  0  0  0  0  0  0  0  0  0  0
    1.6371    0.6088   -0.5316 N   0  0  0  0  0  0  0  0  0  0  0  0
  1  2  1  0
  2  3  1  0
  2  4  1  0
  4  5  1  0
  5  6  1  0
  6  7  1  0
  7  8  2  0
  7  9  1  0
  9 10  1  0
 10 11  1  0
 11 12  1  0
 11 13  1  0
 15 14  1  6
 15 16  1  0
 16 17  1  0
 17 18  1  0
 18 19  2  0
 19 20  1  0
 20 21  2  0
 15 22  1  0
 22 23  1  0
 23 24  2  0
 24 25  1  0
 25 26  2  0
 26 27  1  0
 27 28  2  0
 28 29  1  0
 29 30  1  0
 30 31  2  0
 31 32  1  0
 32 33  2  0
 33 34  1  0
 33 35  1  0
 35 36  2  0
 36 37  1  0
 28 38  1  0
 38 39  2  0
 38 40  1  0
 40 41  1  0
 40 42  1  0
 42 43  2  0
 21 17  1  0
 43 23  1  0
 42 26  1  0
 36 30  1  0
M  END

