
     RDKit          3D

 36 38  0  0  0  0  0  0  0  0999 V2000
    2.6767    0.3657   -0.1107 C   0  0  0  0  0  0  0  0  0  0  0  0
    1.4252   -0.5073   -0.2295 C   0  0  0  0  0  0  0  0  0  0  0  0
    0.3192    0.4138    0.0767 N   0  0  0  0  0  0  0  0  0  0  0  0
   -1.0203    0.0041    0.0771 C   0  0  0  0  0  0  0  0  0  0  0  0
   -2.1465    0.9308    0.3861 C   0  0  0  0  0  0  0  0  0  0  0  0
   -1.2544   -1.2072   -0.1997 O   0  0  0  0  0  0  0  0  0  0  0  0
    4.4961   -2.2478    0.0524 C   0  0  0  0  0  0  0  0  0  0  0  0
    4.5370   -1.9364   -1.5665 C   0  0  2  0  0  0  0  0  0  0  0  0
    6.0726   -1.3513   -1.5208 C   0  0  0  0  0  0  0  0  0  0  0  0
    6.1100   -0.2405   -0.6563 N   0  0  0  0  0  0  0  0  0  0  0  0
    5.9023    1.0187   -1.0360 N   0  0  0  0  0  0  0  0  0  0  0  0
    6.0085    1.8339    0.0266 C   0  0  0  0  0  0  0  0  0  0  0  0
    6.2864    1.0376    1.0629 N   0  0  0  0  0  0  0  0  0  0  0  0
    6.3412   -0.2048    0.6217 N   0  0  0  0  0  0  0  0  0  0  0  0
    3.7902   -0.5598   -1.4242 N   0  0  0  0  0  0  0  0  0  0  0  0
    2.4868   -0.7320   -0.8454 C   0  0  0  0  0  0  0  0  0  0  0  0
    1.9916   -1.9258   -0.4807 N   0  0  0  0  0  0  0  0  0  0  0  0
    0.7977   -2.1369    0.0563 C   0  0  0  0  0  0  0  0  0  0  0  0
   -0.0222   -1.0436    0.2662 C   0  0  0  0  0  0  0  0  0  0  0  0
   -1.2719   -1.1495    0.8136 C   0  0  0  0  0  0  0  0  0  0  0  0
   -2.0753   -0.0594    1.0170 C   0  0  0  0  0  0  0  0  0  0  0  0
   -3.3281   -0.2377    1.5749 O   0  0  0  0  0  0  0  0  0  0  0  0
   -4.5083    0.1046    0.9614 C   0  0  0  0  0  0  0  0  0  0  0  0
   -5.4047    1.0065    1.4732 C   0  0  0  0  0  0  0  0  0  0  0  0
   -6.5745    1.3177    0.8223 C   0  0  0  0  0  0  0  0  0  0  0  0
   -6.9061    0.7398   -0.3771 C   0  0  0  0  0  0  0  0  0  0  0  0
   -8.0745    1.0749   -0.9904 F   0  0  0  0  0  0  0  0  0  0  0  0
   -6.0165   -0.1660   -0.9015 C   0  0  0  0  0  0  0  0  0  0  0  0
   -4.8340   -0.4810   -0.2442 C   0  0  0  0  0  0  0  0  0  0  0  0
   -3.9743   -1.3840   -0.7930 F   0  0  0  0  0  0  0  0  0  0  0  0
   -1.5602    1.1546    0.6412 C   0  0  0  0  0  0  0  0  0  0  0  0
   -2.2643    2.1925    0.8089 O   0  0  0  0  0  0  0  0  0  0  0  0
   -0.3382    1.2770    0.1036 N   0  0  0  0  0  0  0  0  0  0  0  0
    0.1993    2.5747   -0.2924 C   0  0  0  0  0  0  0  0  0  0  0  0
    0.4526    0.1991   -0.0959 C   0  0  0  0  0  0  0  0  0  0  0  0
    1.6810    0.3249   -0.6367 N   0  0  0  0  0  0  0  0  0  0  0  0
  1  2  1  0
  2  3  1  0
  3  4  1  0
  4  5  1  0
  4  6  2  0
  8  7  1  1
  8  9  1  0
  9 10  1  0
 10 11  1  0
 11 12  2  0
 12 13  1  0
 13 14  2  0
  8 15  1  0
 15 16  1  0
 16 17  2  0
 17 18  1  0
 18 19  2  0
 19 20  1  0
 20 21  2  0
 21 22  1  0
 22 23  1  0
 23 24  2  0
 24 25  1  0
 25 26  2  0
 26 27  1  0
 26 28  1  0
 28 29  2  0
 29 30  1  0
 21 31  1  0
 31 32  2  0
 31 33  1  0
 33 34  1  0
 33 35  1  0
 35 36  2  0
 14 10  1  0
 36 16  1  0
 35 19  1  0
 29 23  1  0
M  END

