
     RDKit          3D

 43 45  0  0  0  0  0  0  0  0999 V2000
   -1.9282    0.9102   -0.7572 C   0  0  0  0  0  0  0  0  0  0  0  0
   -3.0766   -0.0319   -0.5330 C   0  0  0  0  0  0  0  0  0  0  0  0
   -4.2749    0.6197    0.0968 C   0  0  0  0  0  0  0  0  0  0  0  0
   -2.6785   -1.2029    0.3361 C   0  0  0  0  0  0  0  0  0  0  0  0
   -2.2185   -0.6873    1.6592 C   0  0  0  0  0  0  0  0  0  0  0  0
   -1.0814    0.1785    1.4540 N   0  0  0  0  0  0  0  0  0  0  0  0
    0.0763   -0.4037    0.8372 C   0  0  0  0  0  0  0  0  0  0  0  0
    0.0760   -1.6230    0.4970 O   0  0  0  0  0  0  0  0  0  0  0  0
    1.2716    0.4307    0.6010 C   0  0  0  0  0  0  0  0  0  0  0  0
    2.3496   -0.4048   -0.0559 C   0  0  0  0  0  0  0  0  0  0  0  0
    3.5176    0.4875   -0.2647 C   0  0  0  0  0  0  0  0  0  0  0  0
    3.7216    0.9665   -1.5489 O   0  0  0  0  0  1  0  0  0  0  0  0
    4.2454    0.7605    0.7006 O   0  0  0  0  0  0  0  0  0  0  0  0
    3.1680   -0.2155   -3.3713 C   0  0  0  0  0  0  0  0  0  0  0  0
    4.4851    0.1646   -2.4421 C   0  0  2  0  0  0  0  0  0  0  0  0
    3.9380   -0.6980   -1.1480 C   0  0  0  0  0  0  0  0  0  0  0  0
    4.9609   -0.5249   -0.1352 N   0  0  0  0  0  0  0  0  0  0  0  0
    5.0736    0.4009    0.7999 N   0  0  0  0  0  0  0  0  0  0  0  0
    6.1770    0.1646    1.5081 C   0  0  0  0  0  0  0  0  0  0  0  0
    6.7485   -0.9338    0.9886 N   0  0  0  0  0  0  0  0  0  0  0  0
    5.9899   -1.3362   -0.0114 N   0  0  0  0  0  0  0  0  0  0  0  0
    3.9281    1.5324   -1.9241 N   0  0  0  0  0  0  0  0  0  0  0  0
    2.6964    1.5948   -1.2726 C   0  0  0  0  0  0  0  0  0  0  0  0
    2.1388    2.7124   -0.7921 N   0  0  0  0  0  0  0  0  0  0  0  0
    0.9469    2.7012   -0.1795 C   0  0  0  0  0  0  0  0  0  0  0  0
    0.2096    1.5199   -0.0032 C   0  0  0  0  0  0  0  0  0  0  0  0
   -0.9746    1.4695    0.5982 C   0  0  0  0  0  0  0  0  0  0  0  0
   -1.6951    0.2420    0.7575 C   0  0  0  0  0  0  0  0  0  0  0  0
   -2.8731    0.2970    1.3765 O   0  0  0  0  0  0  0  0  0  0  0  0
   -4.1855    0.0993    1.1852 C   0  0  0  0  0  0  0  0  0  0  0  0
   -4.9779    1.2956    1.2973 C   0  0  0  0  0  0  0  0  0  0  0  0
   -6.2953    1.2322    1.1304 C   0  0  0  0  0  0  0  0  0  0  0  0
   -6.9698    0.0628    0.8493 C   0  0  0  0  0  0  0  0  0  0  0  0
   -8.2978    0.0261    0.6852 F   0  0  0  0  0  0  0  0  0  0  0  0
   -6.2406   -1.0820    0.7393 C   0  0  0  0  0  0  0  0  0  0  0  0
   -4.8658   -1.0414    0.9096 C   0  0  0  0  0  0  0  0  0  0  0  0
   -4.2280   -2.2424    0.8136 F   0  0  0  0  0  0  0  0  0  0  0  0
   -1.0415   -0.8364    0.2356 C   0  0  0  0  0  0  0  0  0  0  0  0
   -1.5490   -1.9920    0.3027 O   0  0  0  0  0  0  0  0  0  0  0  0
    0.1647   -0.8103   -0.3820 N   0  0  0  0  0  0  0  0  0  0  0  0
    0.7902   -2.0166   -0.9124 C   0  0  0  0  0  0  0  0  0  0  0  0
    0.7923    0.3676   -0.5026 C   0  0  0  0  0  0  0  0  0  0  0  0
    1.9860    0.4694   -1.1006 N   0  0  0  0  0  0  0  0  0  0  0  0
  1  2  1  0
  2  3  1  0
  2  4  1  0
  4  5  1  0
  5  6  1  0
  6  7  1  0
  7  8  2  0
  7  9  1  0
  9 10  1  0
 10 11  1  0
 11 12  1  0
 11 13  2  0
 15 14  1  6
 15 16  1  0
 16 17  1  0
 17 18  1  0
 18 19  2  0
 19 20  1  0
 20 21  2  0
 15 22  1  0
 22 23  1  0
 23 24  2  0
 24 25  1  0
 25 26  2  0
 26 27  1  0
 27 28  2  0
 28 29  1  0
 29 30  1  0
 30 31  2  0
 31 32  1  0
 32 33  2  0
 33 34  1  0
 33 35  1  0
 35 36  2  0
 36 37  1  0
 28 38  1  0
 38 39  2  0
 38 40  1  0
 40 41  1  0
 40 42  1  0
 42 43  2  0
 21 17  1  0
 43 23  1  0
 42 26  1  0
 36 30  1  0
M  RAD  1  12   2
M  END

