
     RDKit          3D

 40 42  0  0  0  0  0  0  0  0999 V2000
    2.2477    0.5631   -1.9400 C   0  0  0  0  0  0  0  0  0  0  0  0
    2.6071   -0.1147   -0.6273 C   0  0  0  0  0  0  0  0  0  0  0  0
    3.8709    0.5588   -0.1276 C   0  0  0  0  0  0  0  0  0  0  0  0
    1.4837    0.2007    0.3316 C   0  0  0  0  0  0  0  0  0  0  0  0
    0.1855   -0.3023   -0.1547 C   0  0  0  0  0  0  0  0  0  0  0  0
    0.1676   -0.9057   -1.2579 O   0  0  0  0  0  0  0  0  0  0  0  0
   -1.0368   -0.1459    0.5454 N   0  0  0  0  0  0  0  0  0  0  0  0
   -2.2586   -0.6921   -0.0460 C   0  0  0  0  0  0  0  0  0  0  0  0
   -3.4588   -0.4574    0.7904 C   0  0  0  0  0  0  0  0  0  0  0  0
   -3.8083    1.2954    1.0846 S   0  0  0  0  0  0  0  0  0  0  0  0
    5.4145   -2.0488    1.7842 C   0  0  0  0  0  0  0  0  0  0  0  0
    3.8999   -1.9139    1.1249 C   0  0  2  0  0  0  0  0  0  0  0  0
    4.4559   -1.7037   -0.4131 C   0  0  0  0  0  0  0  0  0  0  0  0
    5.2731   -0.5540   -0.4463 N   0  0  0  0  0  0  0  0  0  0  0  0
    6.5887   -0.5604   -0.2304 N   0  0  0  0  0  0  0  0  0  0  0  0
    7.0991    0.6756   -0.3263 C   0  0  0  0  0  0  0  0  0  0  0  0
    6.0503    1.4755   -0.6137 N   0  0  0  0  0  0  0  0  0  0  0  0
    4.9788    0.7300   -0.6806 N   0  0  0  0  0  0  0  0  0  0  0  0
    3.7841   -0.3750    1.4343 N   0  0  0  0  0  0  0  0  0  0  0  0
    2.5298    0.1321    0.9813 C   0  0  0  0  0  0  0  0  0  0  0  0
    2.2596    1.4602    1.1707 N   0  0  0  0  0  0  0  0  0  0  0  0
    1.0823    1.9451    0.7477 C   0  0  0  0  0  0  0  0  0  0  0  0
    0.1276    1.1705    0.1298 C   0  0  0  0  0  0  0  0  0  0  0  0
   -1.0871    1.6519   -0.3110 C   0  0  0  0  0  0  0  0  0  0  0  0
   -2.0154    0.8184   -0.9307 C   0  0  0  0  0  0  0  0  0  0  0  0
   -3.2455    1.3171   -1.3745 O   0  0  0  0  0  0  0  0  0  0  0  0
   -4.3818    0.7452   -0.8164 C   0  0  0  0  0  0  0  0  0  0  0  0
   -5.2995    0.1172   -1.6160 C   0  0  0  0  0  0  0  0  0  0  0  0
   -6.4161   -0.4362   -1.0035 C   0  0  0  0  0  0  0  0  0  0  0  0
   -6.5966   -0.3586    0.3531 C   0  0  0  0  0  0  0  0  0  0  0  0
   -7.6933   -0.9083    0.9083 F   0  0  0  0  0  0  0  0  0  0  0  0
   -5.6931    0.2626    1.1619 C   0  0  0  0  0  0  0  0  0  0  0  0
   -4.5727    0.8181    0.5485 C   0  0  0  0  0  0  0  0  0  0  0  0
   -3.6310    1.4521    1.2912 F   0  0  0  0  0  0  0  0  0  0  0  0
   -1.6948   -0.5155   -1.0984 C   0  0  0  0  0  0  0  0  0  0  0  0
   -2.5408   -1.2678   -1.6614 O   0  0  0  0  0  0  0  0  0  0  0  0
   -0.5006   -0.9731   -0.6613 N   0  0  0  0  0  0  0  0  0  0  0  0
   -0.1711   -2.3702   -0.8399 C   0  0  0  0  0  0  0  0  0  0  0  0
    0.4036   -0.1786   -0.0618 C   0  0  0  0  0  0  0  0  0  0  0  0
    1.5920   -0.6077    0.3794 N   0  0  0  0  0  0  0  0  0  0  0  0
  1  2  1  0
  2  3  1  0
  2  4  1  0
  4  5  1  0
  5  6  2  0
  5  7  1  0
  7  8  1  0
  8  9  1  0
  9 10  1  0
 12 11  1  1
 12 13  1  0
 13 14  1  0
 14 15  1  0
 15 16  2  0
 16 17  1  0
 17 18  2  0
 12 19  1  0
 19 20  1  0
 20 21  2  0
 21 22  1  0
 22 23  2  0
 23 24  1  0
 24 25  2  0
 25 26  1  0
 26 27  1  0
 27 28  2  0
 28 29  1  0
 29 30  2  0
 30 31  1  0
 30 32  1  0
 32 33  2  0
 33 34  1  0
 25 35  1  0
 35 36  2  0
 35 37  1  0
 37 38  1  0
 37 39  1  0
 39 40  2  0
 18 14  1  0
 40 20  1  0
 39 23  1  0
 33 27  1  0
M  END

