
     RDKit          3D

 50 54  0  0  0  0  0  0  0  0999 V2000
    4.0506    0.4220   -0.2387 C   0  0  0  0  0  0  0  0  0  0  0  0
    4.4567   -0.7677    0.8609 C   0  0  2  0  0  0  0  0  0  0  0  0
    5.7956   -1.2401   -0.0187 C   0  0  0  0  0  0  0  0  0  0  0  0
    6.5737   -0.0291   -0.0427 N   0  0  0  0  0  0  0  0  0  0  0  0
    7.4737    0.3414    0.8246 N   0  0  0  0  0  0  0  0  0  0  0  0
    7.9747    1.5337    0.4508 C   0  0  0  0  0  0  0  0  0  0  0  0
    7.3489    1.8829   -0.6795 N   0  0  0  0  0  0  0  0  0  0  0  0
    6.4862    0.8978   -0.9636 N   0  0  0  0  0  0  0  0  0  0  0  0
    3.5298   -1.8646    0.1951 N   0  0  0  0  0  0  0  0  0  0  0  0
    2.1443   -1.5392    0.1509 C   0  0  0  0  0  0  0  0  0  0  0  0
    1.2376   -2.3679   -0.3822 N   0  0  0  0  0  0  0  0  0  0  0  0
   -0.0786   -2.0840   -0.4363 C   0  0  0  0  0  0  0  0  0  0  0  0
   -0.5652   -0.8918    0.0698 C   0  0  0  0  0  0  0  0  0  0  0  0
   -1.8888   -0.5388    0.0480 C   0  0  0  0  0  0  0  0  0  0  0  0
   -2.3147    0.6793    0.5756 C   0  0  0  0  0  0  0  0  0  0  0  0
   -3.6301    1.0813    0.5787 O   0  0  0  0  0  0  0  0  0  0  0  0
   -4.6626    0.3137    0.0569 C   0  0  0  0  0  0  0  0  0  0  0  0
   -4.4562   -0.9258   -0.5131 C   0  0  0  0  0  0  0  0  0  0  0  0
   -5.5107   -1.6671   -1.0254 C   0  0  0  0  0  0  0  0  0  0  0  0
   -6.8142   -1.1681   -0.9735 C   0  0  0  0  0  0  0  0  0  0  0  0
   -7.8352   -1.8810   -1.4672 F   0  0  0  0  0  0  0  0  0  0  0  0
   -7.0249    0.0709   -0.4043 C   0  0  0  0  0  0  0  0  0  0  0  0
   -5.9498    0.8059    0.1079 C   0  0  0  0  0  0  0  0  0  0  0  0
   -6.1478    2.0226    0.6681 F   0  0  0  0  0  0  0  0  0  0  0  0
   -1.3632    1.5188    1.1204 C   0  0  0  0  0  0  0  0  0  0  0  0
   -1.7139    2.6432    1.6136 O   0  0  0  0  0  0  0  0  0  0  0  0
   -0.0729    1.1409    1.1253 N   0  0  0  0  0  0  0  0  0  0  0  0
    0.9229    2.0261    1.6986 C   0  0  0  0  0  0  0  0  0  0  0  0
    0.3650   -0.0338    0.6205 C   0  0  0  0  0  0  0  0  0  0  0  0
    1.6690   -0.3817    0.6419 N   0  0  0  0  0  0  0  0  0  0  0  0
    0.9362   -0.6345    0.5310 O   0  0  0  0  0  0  0  0  0  0  0  0
    0.8216   -1.6716   -0.1642 C   0  0  0  0  0  0  0  0  0  0  0  0
    1.8463   -2.7338   -0.2693 C   0  0  0  0  0  0  0  0  0  0  0  0
    3.0872   -2.5035    0.5052 C   0  0  0  0  0  0  0  0  0  0  0  0
    3.8462   -1.2872    0.1397 C   0  0  0  0  0  0  0  0  0  0  0  0
    3.6063   -0.0912    0.7754 C   0  0  0  0  0  0  0  0  0  0  0  0
    4.2990    1.0653    0.4571 C   0  0  0  0  0  0  0  0  0  0  0  0
    5.2685    1.0530   -0.5251 C   0  0  0  0  0  0  0  0  0  0  0  0
    5.5155   -0.1419   -1.1676 C   0  0  0  0  0  0  0  0  0  0  0  0
    4.8229   -1.2904   -0.8468 C   0  0  0  0  0  0  0  0  0  0  0  0
   -0.3854   -1.8206   -0.8969 N   0  0  0  0  0  0  0  0  0  0  0  0
   -1.4501   -0.8336   -0.8591 C   0  0  0  0  0  0  0  0  0  0  0  0
   -1.9724   -0.6534    0.5627 C   0  0  0  0  0  0  0  0  0  0  0  0
   -3.0598    0.3855    0.4591 C   0  0  0  0  0  0  0  0  0  0  0  0
   -2.7435    1.7212    0.5995 C   0  0  0  0  0  0  0  0  0  0  0  0
   -3.7229    2.6879    0.5083 C   0  0  0  0  0  0  0  0  0  0  0  0
   -5.0403    2.3578    0.2758 C   0  0  0  0  0  0  0  0  0  0  0  0
   -5.9767    3.3538    0.1934 O   0  0  0  0  0  0  0  0  0  0  0  0
   -5.3363    1.0042    0.1374 C   0  0  0  0  0  0  0  0  0  0  0  0
   -4.3624    0.0328    0.2274 C   0  0  0  0  0  0  0  0  0  0  0  0
  2  1  1  6
  2  3  1  0
  3  4  1  0
  4  5  1  0
  5  6  2  0
  6  7  1  0
  7  8  2  0
  2  9  1  0
  9 10  1  0
 10 11  2  0
 11 12  1  0
 12 13  2  0
 13 14  1  0
 14 15  2  0
 15 16  1  0
 16 17  1  0
 17 18  2  0
 18 19  1  0
 19 20  2  0
 20 21  1  0
 20 22  1  0
 22 23  2  0
 23 24  1  0
 15 25  1  0
 25 26  2  0
 25 27  1  0
 27 28  1  0
 27 29  1  0
 29 30  2  0
 31 32  2  0
 32 33  1  0
 33 34  1  0
 34 35  1  0
 35 36  2  0
 36 37  1  0
 37 38  2  0
 38 39  1  0
 39 40  2  0
 32 41  1  0
 41 42  1  0
 42 43  1  0
 43 44  1  0
 44 45  2  0
 45 46  1  0
 46 47  2  0
 47 48  1  0
 47 49  1  0
 49 50  2  0
  8  4  1  0
 30 10  1  0
 40 35  1  0
 50 44  1  0
 29 13  1  0
 23 17  1  0
M  END

