
     RDKit          3D

 44 46  0  0  0  0  0  0  0  0999 V2000
   -5.5128    0.2557    0.3797 C   0  0  0  0  0  0  0  0  0  0  0  0
   -4.1048    1.2965   -0.1396 S   0  0  0  0  0  0  0  0  0  0  0  0
   -3.4364    0.5613   -1.6604 C   0  0  0  0  0  0  0  0  0  0  0  0
   -2.8540   -0.7926   -1.2831 C   0  0  0  0  0  0  0  0  0  0  0  0
   -1.7589   -0.5042   -0.2489 C   0  0  0  0  0  0  0  0  0  0  0  0
   -0.7790    0.3518   -0.8784 N   0  0  0  0  0  0  0  0  0  0  0  0
    0.3972    0.8144   -0.1639 C   0  0  0  0  0  0  0  0  0  0  0  0
    0.4525    0.3954    1.0178 O   0  0  0  0  0  0  0  0  0  0  0  0
    1.3694    1.6779   -0.8278 C   0  0  0  0  0  0  0  0  0  0  0  0
    2.6194    1.9621   -0.1776 C   0  0  0  0  0  0  0  0  0  0  0  0
    3.5155    0.8161    0.0437 C   0  0  0  0  0  0  0  0  0  0  0  0
    2.9536   -0.2460    0.8943 C   0  0  0  0  0  0  0  0  0  0  0  0
    3.9035   -1.4026    1.0982 C   0  0  0  0  0  0  0  0  0  0  0  0
    3.2347   -2.3722    1.9461 N   0  0  0  0  0  4  0  0  0  0  0  0
    5.6781    1.4799    1.4965 C   0  0  0  0  0  0  0  0  0  0  0  0
    4.2013    0.7397    1.1805 C   0  0  2  0  0  0  0  0  0  0  0  0
    4.7441    0.1886   -0.3025 C   0  0  0  0  0  0  0  0  0  0  0  0
    5.8620   -0.6263    0.0833 N   0  0  0  0  0  0  0  0  0  0  0  0
    7.0986   -0.1558    0.1961 N   0  0  0  0  0  0  0  0  0  0  0  0
    7.9447   -1.1328    0.5705 C   0  0  0  0  0  0  0  0  0  0  0  0
    7.1707   -2.2486    0.6878 N   0  0  0  0  0  0  0  0  0  0  0  0
    5.9310   -1.9087    0.3890 N   0  0  0  0  0  0  0  0  0  0  0  0
    3.6036    2.0659    0.5477 N   0  0  0  0  0  0  0  0  0  0  0  0
    2.2674    1.8485    0.1213 C   0  0  0  0  0  0  0  0  0  0  0  0
    1.6193    2.8988   -0.4444 N   0  0  0  0  0  0  0  0  0  0  0  0
    0.3513    2.7709   -0.8733 C   0  0  0  0  0  0  0  0  0  0  0  0
   -0.3334    1.5746   -0.7549 C   0  0  0  0  0  0  0  0  0  0  0  0
   -1.6298    1.4207   -1.1862 C   0  0  0  0  0  0  0  0  0  0  0  0
   -2.2334    0.1777   -1.0233 C   0  0  0  0  0  0  0  0  0  0  0  0
   -3.5413    0.0731   -1.4742 O   0  0  0  0  0  0  0  0  0  0  0  0
   -4.5463   -0.2699   -0.5503 C   0  0  0  0  0  0  0  0  0  0  0  0
   -4.2638   -0.5003    0.7715 C   0  0  0  0  0  0  0  0  0  0  0  0
   -5.2851   -0.8336    1.6367 C   0  0  0  0  0  0  0  0  0  0  0  0
   -6.5802   -0.9375    1.1920 C   0  0  0  0  0  0  0  0  0  0  0  0
   -7.5864   -1.2597    2.0149 F   0  0  0  0  0  0  0  0  0  0  0  0
   -6.8630   -0.7046   -0.1418 C   0  0  0  0  0  0  0  0  0  0  0  0
   -5.8466   -0.3759   -0.9888 C   0  0  0  0  0  0  0  0  0  0  0  0
   -6.1178   -0.1447   -2.3056 F   0  0  0  0  0  0  0  0  0  0  0  0
   -1.5610   -0.8761   -0.4475 C   0  0  0  0  0  0  0  0  0  0  0  0
   -2.1359   -1.9841   -0.3159 O   0  0  0  0  0  0  0  0  0  0  0  0
   -0.2900   -0.6890   -0.0359 N   0  0  0  0  0  0  0  0  0  0  0  0
    0.4153   -1.8039    0.5710 C   0  0  0  0  0  0  0  0  0  0  0  0
    0.3307    0.5076   -0.1781 C   0  0  0  0  0  0  0  0  0  0  0  0
    1.5960    0.7056    0.2281 N   0  0  0  0  0  0  0  0  0  0  0  0
  1  2  1  0
  2  3  1  0
  3  4  1  0
  4  5  1  0
  5  6  1  0
  6  7  1  0
  7  8  2  0
  7  9  1  0
  9 10  1  0
 10 11  1  0
 11 12  1  0
 12 13  1  0
 13 14  1  0
 16 15  1  1
 16 17  1  0
 17 18  1  0
 18 19  1  0
 19 20  2  0
 20 21  1  0
 21 22  2  0
 16 23  1  0
 23 24  1  0
 24 25  2  0
 25 26  1  0
 26 27  2  0
 27 28  1  0
 28 29  2  0
 29 30  1  0
 30 31  1  0
 31 32  2  0
 32 33  1  0
 33 34  2  0
 34 35  1  0
 34 36  1  0
 36 37  2  0
 37 38  1  0
 29 39  1  0
 39 40  2  0
 39 41  1  0
 41 42  1  0
 41 43  1  0
 43 44  2  0
 22 18  1  0
 44 24  1  0
 43 27  1  0
 37 31  1  0
M  CHG  1  14   1
M  END

