
     RDKit          3D

 51 53  0  0  0  0  0  0  0  0999 V2000
   -4.1656    2.3189   -0.8788 C   0  0  0  0  0  0  0  0  0  0  0  0
   -3.2661    1.1294   -0.5268 C   0  0  0  0  0  0  0  0  0  0  0  0
   -4.2653   -0.1408   -0.4410 C   0  0  2  0  0  0  0  0  0  0  0  0
   -5.1838    0.5188    0.7780 C   0  0  0  0  0  0  0  0  0  0  0  0
   -3.3707   -1.0242    0.5507 C   0  0  0  0  0  0  0  0  0  0  0  0
   -2.1356   -1.3599    0.0405 N   0  0  0  0  0  0  0  0  0  0  0  0
   -0.9888   -0.7685   -0.3720 C   0  0  0  0  0  0  0  0  0  0  0  0
   -0.8202    0.4248   -0.3457 O   0  0  0  0  0  0  0  0  0  0  0  0
    0.0970   -1.7970   -0.8919 C   0  0  2  0  0  0  0  0  0  0  0  0
    0.8059   -2.1326    0.5552 C   0  0  0  0  0  0  0  0  0  0  0  0
   -0.2031   -2.6934    1.4511 C   0  0  0  0  0  0  0  0  0  0  0  0
   -0.4660   -4.0879    1.3681 N   0  0  0  0  0  0  0  0  0  0  0  0
   -0.7843   -1.9121    2.2467 O   0  0  0  0  0  0  0  0  0  0  0  0
    1.1989   -0.7623   -1.3412 N   0  0  0  0  0  0  0  0  0  0  0  0
    1.7981    0.0702   -0.4285 C   0  0  0  0  0  0  0  0  0  0  0  0
    1.5009    0.0457    0.7959 O   0  0  0  0  0  0  0  0  0  0  0  0
    2.8377    1.0354   -0.9135 C   0  0  0  0  0  0  0  0  0  0  0  0
    3.3540    1.8492    0.2595 C   0  0  0  0  0  0  0  0  0  0  0  0
    4.3719    2.7919   -0.2065 C   0  0  0  0  0  0  0  0  0  0  0  0
    4.9883    3.6619    0.7088 N   0  0  0  0  0  0  0  0  0  0  0  0
    4.6968    2.8326   -1.3967 O   0  0  0  0  0  0  0  0  0  0  0  0
   -3.9613   -0.6276   -0.1322 C   0  0  0  0  0  0  0  0  0  0  0  0
   -4.2658    0.2051    1.2694 C   0  0  2  0  0  0  0  0  0  0  0  0
   -5.6822    0.8428    0.6777 C   0  0  0  0  0  0  0  0  0  0  0  0
   -6.4111   -0.3776    0.4167 N   0  0  0  0  0  0  0  0  0  0  0  0
   -7.2152   -1.0632    1.1998 N   0  0  0  0  0  0  0  0  0  0  0  0
   -7.6946   -2.1527    0.5631 C   0  0  0  0  0  0  0  0  0  0  0  0
   -7.1412   -2.1062   -0.6654 N   0  0  0  0  0  0  0  0  0  0  0  0
   -6.3702   -1.0248   -0.7288 N   0  0  0  0  0  0  0  0  0  0  0  0
   -3.4018    1.4499    0.8224 N   0  0  0  0  0  0  0  0  0  0  0  0
   -2.0634    1.0489    0.6298 C   0  0  0  0  0  0  0  0  0  0  0  0
   -1.5825   -0.1875    0.7950 N   0  0  0  0  0  0  0  0  0  0  0  0
   -0.2896   -0.5096    0.5949 C   0  0  0  0  0  0  0  0  0  0  0  0
    0.6134    0.4562    0.1997 C   0  0  0  0  0  0  0  0  0  0  0  0
    1.9484    0.1837   -0.0198 C   0  0  0  0  0  0  0  0  0  0  0  0
    2.8140    1.1844   -0.4148 C   0  0  0  0  0  0  0  0  0  0  0  0
    4.1496    0.9160   -0.6353 O   0  0  0  0  0  0  0  0  0  0  0  0
    4.6279   -0.3720   -0.4584 C   0  0  0  0  0  0  0  0  0  0  0  0
    5.1989   -1.0048   -1.5407 C   0  0  0  0  0  0  0  0  0  0  0  0
    5.6738   -2.2939   -1.3505 C   0  0  0  0  0  0  0  0  0  0  0  0
    5.5869   -2.9319   -0.1364 C   0  0  0  0  0  0  0  0  0  0  0  0
    6.0786   -4.1882   -0.0515 F   0  0  0  0  0  0  0  0  0  0  0  0
    5.0157   -2.3002    0.9481 C   0  0  0  0  0  0  0  0  0  0  0  0
    4.5408   -1.0082    0.7537 C   0  0  0  0  0  0  0  0  0  0  0  0
    3.9804   -0.3855    1.8136 F   0  0  0  0  0  0  0  0  0  0  0  0
    2.2997    2.4555   -0.5805 C   0  0  0  0  0  0  0  0  0  0  0  0
    3.1041    3.3569   -0.9414 O   0  0  0  0  0  0  0  0  0  0  0  0
    0.9919    2.6853   -0.3576 N   0  0  0  0  0  0  0  0  0  0  0  0
    0.4941    4.0351   -0.5436 C   0  0  0  0  0  0  0  0  0  0  0  0
    0.1325    1.7355    0.0252 C   0  0  0  0  0  0  0  0  0  0  0  0
   -1.1717    1.9786    0.2446 N   0  0  0  0  0  0  0  0  0  0  0  0
  1  2  1  0
  2  3  1  0
  3  4  1  1
  3  5  1  0
  5  6  1  0
  6  7  1  0
  7  8  2  0
  7  9  1  0
  9 10  1  1
 10 11  1  0
 11 12  1  0
 11 13  2  0
  9 14  1  0
 14 15  1  0
 15 16  2  0
 15 17  1  0
 17 18  1  0
 18 19  1  0
 19 20  1  0
 19 21  2  0
 23 22  1  6
 23 24  1  0
 24 25  1  0
 25 26  1  0
 26 27  2  0
 27 28  1  0
 28 29  2  0
 23 30  1  0
 30 31  1  0
 31 32  2  0
 32 33  1  0
 33 34  2  0
 34 35  1  0
 35 36  2  0
 36 37  1  0
 37 38  1  0
 38 39  2  0
 39 40  1  0
 40 41  2  0
 41 42  1  0
 41 43  1  0
 43 44  2  0
 44 45  1  0
 36 46  1  0
 46 47  2  0
 46 48  1  0
 48 49  1  0
 48 50  1  0
 50 51  2  0
 29 25  1  0
 51 31  1  0
 50 34  1  0
 44 38  1  0
M  END

