
     RDKit          3D

 52 54  0  0  0  0  0  0  0  0999 V2000
   -0.1892   -3.6479    2.2227 C   0  0  0  0  0  0  0  0  0  0  0  0
    0.3221   -3.3913    0.8527 C   0  0  0  0  0  0  0  0  0  0  0  0
    0.8106   -4.6497    0.2102 C   0  0  0  0  0  0  0  0  0  0  0  0
   -0.6495   -2.6570   -0.0511 C   0  0  0  0  0  0  0  0  0  0  0  0
   -0.9238   -1.2323    0.7268 C   0  0  2  0  0  0  0  0  0  0  0  0
   -1.8970   -0.6999   -0.3816 N   0  0  0  0  0  0  0  0  0  0  0  0
   -2.6636    0.4174    0.0454 C   0  0  0  0  0  0  0  0  0  0  0  0
   -2.5060    0.8381    1.1964 O   0  0  0  0  0  0  0  0  0  0  0  0
   -3.6588    1.1334   -0.8013 C   0  0  0  0  0  0  0  0  0  0  0  0
   -4.3273    2.2556   -0.0550 C   0  0  0  0  0  0  0  0  0  0  0  0
   -5.2758    2.9210   -0.9710 C   0  0  0  0  0  0  0  0  0  0  0  0
   -6.5889    2.5168   -1.0506 O   0  0  0  0  0  1  0  0  0  0  0  0
   -4.9139    3.8888   -1.7210 O   0  0  0  0  0  0  0  0  0  0  0  0
    0.3638   -0.5202    0.1431 C   0  0  0  0  0  0  0  0  0  0  0  0
    0.5187   -0.3428   -1.0494 O   0  0  0  0  0  0  0  0  0  0  0  0
    1.2784   -0.1277    1.1197 N   0  0  0  0  0  0  0  0  0  0  0  0
    2.5162    0.5268    0.7503 C   0  0  0  0  0  0  0  0  0  0  0  0
    3.3100   -0.4472   -0.1065 C   0  0  0  0  0  0  0  0  0  0  0  0
    4.6039    0.1403   -0.5371 C   0  0  0  0  0  0  0  0  0  0  0  0
    5.4873    0.5302    0.6483 C   0  0  0  0  0  0  0  0  0  0  0  0
    6.7915    1.0965    0.1970 C   0  0  0  0  0  0  0  0  0  0  0  0
    7.5914    1.4513    1.3574 N   0  0  0  0  0  4  0  0  0  0  0  0
    4.2017   -2.2024    2.2782 C   0  0  0  0  0  0  0  0  0  0  0  0
    4.8104   -1.6400    0.8381 C   0  0  2  0  0  0  0  0  0  0  0  0
    5.9872   -0.7429    1.6169 C   0  0  0  0  0  0  0  0  0  0  0  0
    6.7034   -0.1132    0.5198 N   0  0  0  0  0  0  0  0  0  0  0  0
    7.7502   -0.6324   -0.0951 N   0  0  0  0  0  0  0  0  0  0  0  0
    8.1455    0.2298   -1.0542 C   0  0  0  0  0  0  0  0  0  0  0  0
    7.3043    1.2846   -0.9979 N   0  0  0  0  0  0  0  0  0  0  0  0
    6.4453    1.0578   -0.0450 N   0  0  0  0  0  0  0  0  0  0  0  0
    3.8349   -0.3973    0.7285 N   0  0  0  0  0  0  0  0  0  0  0  0
    2.4570   -0.6808    0.6855 C   0  0  0  0  0  0  0  0  0  0  0  0
    1.9003   -1.8813    0.7276 N   0  0  0  0  0  0  0  0  0  0  0  0
    0.5676   -2.0264    0.6789 C   0  0  0  0  0  0  0  0  0  0  0  0
   -0.2892   -0.9259    0.5822 C   0  0  0  0  0  0  0  0  0  0  0  0
   -1.6211   -1.0167    0.5302 C   0  0  0  0  0  0  0  0  0  0  0  0
   -2.4506    0.1478    0.4310 C   0  0  0  0  0  0  0  0  0  0  0  0
   -3.7574   -0.1196    0.3915 O   0  0  0  0  0  0  0  0  0  0  0  0
   -4.8388   -0.0249   -0.3751 C   0  0  0  0  0  0  0  0  0  0  0  0
   -5.4294   -1.2544   -0.8350 C   0  0  0  0  0  0  0  0  0  0  0  0
   -6.5325   -1.2661   -1.6196 C   0  0  0  0  0  0  0  0  0  0  0  0
   -7.1750   -0.1248   -2.0389 C   0  0  0  0  0  0  0  0  0  0  0  0
   -8.2760   -0.1904   -2.8272 F   0  0  0  0  0  0  0  0  0  0  0  0
   -6.6403    1.0612   -1.6187 C   0  0  0  0  0  0  0  0  0  0  0  0
   -5.4880    1.0825   -0.7980 C   0  0  0  0  0  0  0  0  0  0  0  0
   -5.0486    2.3118   -0.3918 F   0  0  0  0  0  0  0  0  0  0  0  0
   -1.8145    1.3410    0.3936 C   0  0  0  0  0  0  0  0  0  0  0  0
   -2.4310    2.4443    0.3105 O   0  0  0  0  0  0  0  0  0  0  0  0
   -0.4716    1.4013    0.4473 N   0  0  0  0  0  0  0  0  0  0  0  0
    0.1944    2.7093    0.4042 C   0  0  0  0  0  0  0  0  0  0  0  0
    0.3161    0.3204    0.5396 C   0  0  0  0  0  0  0  0  0  0  0  0
    1.6458    0.3841    0.5927 N   0  0  0  0  0  0  0  0  0  0  0  0
  1  2  1  0
  2  3  1  0
  2  4  1  0
  5  4  1  6
  5  6  1  0
  6  7  1  0
  7  8  2  0
  7  9  1  0
  9 10  1  0
 10 11  1  0
 11 12  1  0
 11 13  2  0
  5 14  1  0
 14 15  2  0
 14 16  1  0
 16 17  1  0
 17 18  1  0
 18 19  1  0
 19 20  1  0
 20 21  1  0
 21 22  1  0
 24 23  1  1
 24 25  1  0
 25 26  1  0
 26 27  1  0
 27 28  2  0
 28 29  1  0
 29 30  2  0
 24 31  1  0
 31 32  1  0
 32 33  2  0
 33 34  1  0
 34 35  2  0
 35 36  1  0
 36 37  2  0
 37 38  1  0
 38 39  1  0
 39 40  2  0
 40 41  1  0
 41 42  2  0
 42 43  1  0
 42 44  1  0
 44 45  2  0
 45 46  1  0
 37 47  1  0
 47 48  2  0
 47 49  1  0
 49 50  1  0
 49 51  1  0
 51 52  2  0
 30 26  1  0
 52 32  1  0
 51 35  1  0
 45 39  1  0
M  CHG  1  22   1
M  RAD  1  12   2
M  END

