
     RDKit          3D

 49 51  0  0  0  0  0  0  0  0999 V2000
   -3.9356   -1.9149   -1.7919 C   0  0  0  0  0  0  0  0  0  0  0  0
   -3.1699   -2.8943   -0.9330 C   0  0  0  0  0  0  0  0  0  0  0  0
   -4.0010   -4.1071   -0.5872 C   0  0  0  0  0  0  0  0  0  0  0  0
   -2.5284   -2.2734    0.2349 C   0  0  0  0  0  0  0  0  0  0  0  0
   -1.5617   -1.2267   -0.1847 C   0  0  0  0  0  0  0  0  0  0  0  0
   -1.5090   -0.9627   -1.4197 O   0  0  0  0  0  0  0  0  0  0  0  0
   -0.7216   -0.5403    0.7540 N   0  0  0  0  0  0  0  0  0  0  0  0
    0.1871    0.5090   -0.0403 C   0  0  1  0  0  0  0  0  0  0  0  0
   -0.1343    1.7269    1.0576 C   0  0  0  0  0  0  0  0  0  0  0  0
    0.6607    2.8597    0.4710 C   0  0  0  0  0  0  0  0  0  0  0  0
    0.1231    3.1352   -0.9057 C   0  0  0  0  0  0  0  0  0  0  0  0
   -1.3412    3.5025   -0.8887 C   0  0  0  0  0  0  0  0  0  0  0  0
   -2.0431    2.3643   -0.3226 N   0  0  0  0  0  4  0  0  0  0  0  0
    1.5708    0.0849    0.6745 C   0  0  0  0  0  0  0  0  0  0  0  0
    1.5431   -0.4612    1.7684 O   0  0  0  0  0  0  0  0  0  0  0  0
    2.7435    0.3932   -0.0754 N   0  0  0  0  0  0  0  0  0  0  0  0
    4.0109    0.0216    0.4798 C   0  0  0  0  0  0  0  0  0  0  0  0
    5.1733    0.3530   -0.4236 C   0  0  0  0  0  0  0  0  0  0  0  0
    4.9333   -0.5697   -2.0066 S   0  0  0  0  0  0  0  0  0  0  0  0
    5.7989   -0.2492   -1.5283 C   0  0  0  0  0  0  0  0  0  0  0  0
    4.3431    0.4788   -1.1517 C   0  0  2  0  0  0  0  0  0  0  0  0
    4.6304    0.3556    0.4861 C   0  0  0  0  0  0  0  0  0  0  0  0
    5.8462    1.1111    0.6728 N   0  0  0  0  0  0  0  0  0  0  0  0
    5.9503    2.3881    0.9384 N   0  0  0  0  0  0  0  0  0  0  0  0
    7.2640    2.6801    1.0322 C   0  0  0  0  0  0  0  0  0  0  0  0
    7.9453    1.5300    0.8128 N   0  0  0  0  0  0  0  0  0  0  0  0
    7.0600    0.5955    0.5977 N   0  0  0  0  0  0  0  0  0  0  0  0
    3.5553   -0.8835   -1.2006 N   0  0  0  0  0  0  0  0  0  0  0  0
    2.1922   -0.7322   -0.9243 C   0  0  0  0  0  0  0  0  0  0  0  0
    1.6661    0.4586   -0.6548 N   0  0  0  0  0  0  0  0  0  0  0  0
    0.3769    0.6939   -0.3802 C   0  0  0  0  0  0  0  0  0  0  0  0
   -0.5015   -0.3930   -0.3726 C   0  0  0  0  0  0  0  0  0  0  0  0
   -1.8288   -0.2467   -0.1037 C   0  0  0  0  0  0  0  0  0  0  0  0
   -2.6663   -1.3389   -0.1045 C   0  0  0  0  0  0  0  0  0  0  0  0
   -4.0399   -1.2218    0.1688 O   0  0  0  0  0  0  0  0  0  0  0  0
   -4.5190    0.0506    0.4413 C   0  0  0  0  0  0  0  0  0  0  0  0
   -3.7106    1.1666    0.4508 C   0  0  0  0  0  0  0  0  0  0  0  0
   -4.1862    2.4299    0.7213 C   0  0  0  0  0  0  0  0  0  0  0  0
   -5.5105    2.6052    0.9938 C   0  0  0  0  0  0  0  0  0  0  0  0
   -6.0108    3.8522    1.2665 F   0  0  0  0  0  0  0  0  0  0  0  0
   -6.3342    1.4978    0.9883 C   0  0  0  0  0  0  0  0  0  0  0  0
   -5.8619    0.2442    0.7199 C   0  0  0  0  0  0  0  0  0  0  0  0
   -6.7392   -0.8029    0.7331 F   0  0  0  0  0  0  0  0  0  0  0  0
   -2.1280   -2.5730   -0.3825 C   0  0  0  0  0  0  0  0  0  0  0  0
   -2.8726   -3.5935   -0.3903 O   0  0  0  0  0  0  0  0  0  0  0  0
   -0.8267   -2.6838   -0.6414 N   0  0  0  0  0  0  0  0  0  0  0  0
   -0.2594   -3.9870   -0.9348 C   0  0  0  0  0  0  0  0  0  0  0  0
    0.0305   -1.6322   -0.6501 C   0  0  0  0  0  0  0  0  0  0  0  0
    1.3363   -1.8005   -0.9182 N   0  0  0  0  0  0  0  0  0  0  0  0
  1  2  1  0
  2  3  1  0
  2  4  1  0
  4  5  1  0
  5  6  2  0
  5  7  1  0
  7  8  1  0
  8  9  1  1
  9 10  1  0
 10 11  1  0
 11 12  1  0
 12 13  1  0
  8 14  1  0
 14 15  2  0
 14 16  1  0
 16 17  1  0
 17 18  1  0
 18 19  1  0
 21 20  1  6
 21 22  1  0
 22 23  1  0
 23 24  1  0
 24 25  2  0
 25 26  1  0
 26 27  2  0
 21 28  1  0
 28 29  1  0
 29 30  2  0
 30 31  1  0
 31 32  2  0
 32 33  1  0
 33 34  2  0
 34 35  1  0
 35 36  1  0
 36 37  2  0
 37 38  1  0
 38 39  2  0
 39 40  1  0
 39 41  1  0
 41 42  2  0
 42 43  1  0
 34 44  1  0
 44 45  2  0
 44 46  1  0
 46 47  1  0
 46 48  1  0
 48 49  2  0
 27 23  1  0
 49 29  1  0
 48 32  1  0
 42 36  1  0
M  CHG  1  13   1
M  END

