
     RDKit          3D

 48 50  0  0  0  0  0  0  0  0999 V2000
    4.1254    1.0448    1.0071 C   0  0  0  0  0  0  0  0  0  0  0  0
    4.3750   -0.4250    1.7097 C   0  0  2  0  0  0  0  0  0  0  0  0
    5.9772   -0.4680    1.3641 C   0  0  0  0  0  0  0  0  0  0  0  0
    6.1539   -0.3973   -0.0362 N   0  0  0  0  0  0  0  0  0  0  0  0
    6.2898    0.7564   -0.7084 N   0  0  0  0  0  0  0  0  0  0  0  0
    6.4387    0.5094   -2.0014 C   0  0  0  0  0  0  0  0  0  0  0  0
    6.3976   -0.8143   -2.1581 N   0  0  0  0  0  0  0  0  0  0  0  0
    6.2268   -1.3320   -0.9696 N   0  0  0  0  0  0  0  0  0  0  0  0
    3.9427   -1.2348    0.4355 N   0  0  0  0  0  0  0  0  0  0  0  0
    2.5921   -0.9719    0.0207 C   0  0  0  0  0  0  0  0  0  0  0  0
    2.1964   -1.6533   -1.0691 N   0  0  0  0  0  0  0  0  0  0  0  0
    0.9847   -1.5295   -1.5843 C   0  0  0  0  0  0  0  0  0  0  0  0
    0.1005   -0.6540   -0.9577 C   0  0  0  0  0  0  0  0  0  0  0  0
   -1.1846   -0.4963   -1.4703 C   0  0  0  0  0  0  0  0  0  0  0  0
   -2.0047    0.3911   -0.7930 C   0  0  0  0  0  0  0  0  0  0  0  0
   -3.2890    0.5915   -1.2506 O   0  0  0  0  0  0  0  0  0  0  0  0
   -4.4217    0.3401   -0.5098 C   0  0  0  0  0  0  0  0  0  0  0  0
   -4.4140   -0.1437    0.7833 C   0  0  0  0  0  0  0  0  0  0  0  0
   -5.5899   -0.3747    1.4722 C   0  0  0  0  0  0  0  0  0  0  0  0
   -6.8293   -0.1381    0.9152 C   0  0  0  0  0  0  0  0  0  0  0  0
   -7.9899   -0.3637    1.5888 F   0  0  0  0  0  0  0  0  0  0  0  0
   -6.8311    0.3452   -0.3770 C   0  0  0  0  0  0  0  0  0  0  0  0
   -5.6590    0.5793   -1.0740 C   0  0  0  0  0  0  0  0  0  0  0  0
   -5.6991    1.0584   -2.3526 F   0  0  0  0  0  0  0  0  0  0  0  0
   -1.5770    1.0762    0.3195 C   0  0  0  0  0  0  0  0  0  0  0  0
   -2.3903    1.8604    0.8689 O   0  0  0  0  0  0  0  0  0  0  0  0
   -0.3209    0.8906    0.7805 N   0  0  0  0  0  0  0  0  0  0  0  0
    0.0836    1.6351    1.9558 C   0  0  0  0  0  0  0  0  0  0  0  0
    0.5347    0.0294    0.1561 C   0  0  0  0  0  0  0  0  0  0  0  0
    1.7814   -0.1113    0.6693 N   0  0  0  0  0  0  0  0  0  0  0  0
    6.1261    0.0141   -0.6165 O   0  0  0  0  0  1  0  0  0  0  0  0
    4.7873   -0.2456   -0.4087 C   0  0  0  0  0  0  0  0  0  0  0  0
    3.9166    0.6472   -0.2708 O   0  0  0  0  0  0  0  0  0  0  0  0
    4.3223   -1.6657   -0.3403 C   0  0  0  0  0  0  0  0  0  0  0  0
    2.8408   -1.7587   -0.1147 C   0  0  0  0  0  0  0  0  0  0  0  0
    2.5089   -1.0822    1.1797 C   0  0  0  0  0  0  0  0  0  0  0  0
    1.0918   -1.1154    1.4913 N   0  0  0  0  0  0  0  0  0  0  0  0
    0.1058   -0.5340    0.6437 C   0  0  0  0  0  0  0  0  0  0  0  0
    0.4807    0.0005   -0.3652 O   0  0  0  0  0  0  0  0  0  0  0  0
   -1.4015   -0.6519    1.1223 C   0  0  2  0  0  0  0  0  0  0  0  0
   -1.6449   -2.1439    0.5157 C   0  0  0  0  0  0  0  0  0  0  0  0
   -1.0269   -2.2490   -0.6846 O   0  0  0  0  0  0  0  0  0  0  0  0
   -2.0756    0.0904   -0.0696 N   0  0  0  0  0  0  0  0  0  0  0  0
   -3.0015    1.0691    0.2885 C   0  0  0  0  0  0  0  0  0  0  0  0
   -3.2127    1.2706    1.5163 O   0  0  0  0  0  0  0  0  0  0  0  0
   -3.7591    1.8948   -0.6941 C   0  0  0  0  0  0  0  0  0  0  0  0
   -4.6918    2.8611    0.0043 C   0  0  0  0  0  0  0  0  0  0  0  0
   -5.3663    3.5988   -0.9782 O   0  0  0  0  0  0  0  0  0  0  0  0
  2  1  1  6
  2  3  1  0
  3  4  1  0
  4  5  1  0
  5  6  2  0
  6  7  1  0
  7  8  2  0
  2  9  1  0
  9 10  1  0
 10 11  2  0
 11 12  1  0
 12 13  2  0
 13 14  1  0
 14 15  2  0
 15 16  1  0
 16 17  1  0
 17 18  2  0
 18 19  1  0
 19 20  2  0
 20 21  1  0
 20 22  1  0
 22 23  2  0
 23 24  1  0
 15 25  1  0
 25 26  2  0
 25 27  1  0
 27 28  1  0
 27 29  1  0
 29 30  2  0
 31 32  1  0
 32 33  2  0
 32 34  1  0
 34 35  1  0
 35 36  1  0
 36 37  1  0
 37 38  1  0
 38 39  2  0
 38 40  1  0
 40 41  1  6
 41 42  1  0
 40 43  1  0
 43 44  1  0
 44 45  2  0
 44 46  1  0
 46 47  1  0
 47 48  1  0
  8  4  1  0
 30 10  1  0
 29 13  1  0
 23 17  1  0
M  RAD  1  31   2
M  END

