
     RDKit          3D

 52 55  0  0  0  0  0  0  0  0999 V2000
    3.4349   -1.9300   -1.0064 C   0  0  0  0  0  0  0  0  0  0  0  0
    4.4074   -0.7989   -1.7006 C   0  0  2  0  0  0  0  0  0  0  0  0
    5.7884   -1.4957   -1.1612 C   0  0  0  0  0  0  0  0  0  0  0  0
    5.7686   -1.5410    0.2505 N   0  0  0  0  0  0  0  0  0  0  0  0
    6.2489   -0.5619    1.0257 N   0  0  0  0  0  0  0  0  0  0  0  0
    6.1044   -0.8615    2.3215 C   0  0  0  0  0  0  0  0  0  0  0  0
    5.5158   -2.0646    2.3514 N   0  0  0  0  0  0  0  0  0  0  0  0
    5.3287   -2.4429    1.1099 N   0  0  0  0  0  0  0  0  0  0  0  0
    4.2737    0.2134   -0.5121 N   0  0  0  0  0  0  0  0  0  0  0  0
    2.9081    0.6332   -0.2676 C   0  0  0  0  0  0  0  0  0  0  0  0
    2.6290    1.4926    0.7100 N   0  0  0  0  0  0  0  0  0  0  0  0
    1.3806    1.9057    0.9687 C   0  0  0  0  0  0  0  0  0  0  0  0
    0.3313    1.4504    0.2237 C   0  0  0  0  0  0  0  0  0  0  0  0
   -0.9837    1.8429    0.4450 C   0  0  0  0  0  0  0  0  0  0  0  0
   -1.9699    1.3125   -0.3780 C   0  0  0  0  0  0  0  0  0  0  0  0
   -3.2818    1.6571   -0.2135 O   0  0  0  0  0  0  0  0  0  0  0  0
   -4.3171    0.8041    0.0713 C   0  0  0  0  0  0  0  0  0  0  0  0
   -4.1875   -0.5588    0.2383 C   0  0  0  0  0  0  0  0  0  0  0  0
   -5.2678   -1.3708    0.5248 C   0  0  0  0  0  0  0  0  0  0  0  0
   -6.5407   -0.8535    0.6591 C   0  0  0  0  0  0  0  0  0  0  0  0
   -7.6168   -1.6392    0.9413 F   0  0  0  0  0  0  0  0  0  0  0  0
   -6.6661    0.5111    0.4912 C   0  0  0  0  0  0  0  0  0  0  0  0
   -5.5878    1.3253    0.2047 C   0  0  0  0  0  0  0  0  0  0  0  0
   -5.7494    2.6826    0.0437 F   0  0  0  0  0  0  0  0  0  0  0  0
   -1.6132    0.4261   -1.3733 C   0  0  0  0  0  0  0  0  0  0  0  0
   -2.5077   -0.0321   -2.0924 O   0  0  0  0  0  0  0  0  0  0  0  0
   -0.3239    0.0522   -1.5772 N   0  0  0  0  0  0  0  0  0  0  0  0
   -0.0411   -0.8864   -2.6491 C   0  0  0  0  0  0  0  0  0  0  0  0
    0.6420    0.5603   -0.7848 C   0  0  0  0  0  0  0  0  0  0  0  0
    1.8929    0.1679   -1.0181 N   0  0  0  0  0  0  0  0  0  0  0  0
    1.0832    0.5865    1.2860 C   0  0  0  0  0  0  0  0  0  0  0  0
    0.5949   -0.2246   -0.0790 C   0  0  2  0  0  0  0  0  0  0  0  0
   -0.6001   -0.9653    0.6545 N   0  0  0  0  0  0  0  0  0  0  0  0
   -1.8359   -0.8627   -0.0294 C   0  0  0  0  0  0  0  0  0  0  0  0
   -1.9124   -0.2453   -1.1007 O   0  0  0  0  0  0  0  0  0  0  0  0
   -3.0202   -1.5352    0.6143 C   0  0  0  0  0  0  0  0  0  0  0  0
   -4.2769   -1.4512   -0.1481 C   0  0  0  0  0  0  0  0  0  0  0  0
   -4.7113   -0.0683   -0.3831 C   0  0  0  0  0  0  0  0  0  0  0  0
   -4.3897    0.6473   -1.5330 C   0  0  0  0  0  0  0  0  0  0  0  0
   -4.7982    1.9332   -1.7406 C   0  0  0  0  0  0  0  0  0  0  0  0
   -5.5562    2.5772   -0.8040 C   0  0  0  0  0  0  0  0  0  0  0  0
   -5.8950    1.9045    0.3459 C   0  0  0  0  0  0  0  0  0  0  0  0
   -5.4748    0.6000    0.5454 C   0  0  0  0  0  0  0  0  0  0  0  0
    1.7035   -1.3870    0.0644 C   0  0  0  0  0  0  0  0  0  0  0  0
    1.4771   -2.4909    0.4310 O   0  0  0  0  0  0  0  0  0  0  0  0
    2.9673   -0.9330   -0.2891 N   0  0  0  0  0  0  0  0  0  0  0  0
    4.1030   -1.8331   -0.2123 C   0  0  0  0  0  0  0  0  0  0  0  0
    5.3096   -0.9541   -0.6336 C   0  0  0  0  0  0  0  0  0  0  0  0
    5.2997    0.1574    0.3802 C   0  0  0  0  0  0  0  0  0  0  0  0
    6.3569    1.1503    0.2371 C   0  0  0  0  0  0  0  0  0  0  0  0
    6.2620    2.2768    1.1504 N   0  0  0  0  0  0  0  0  0  0  0  0
    7.3136    1.1173   -0.5783 O   0  0  0  0  0  0  0  0  0  0  0  0
  2  1  1  1
  2  3  1  0
  3  4  1  0
  4  5  1  0
  5  6  2  0
  6  7  1  0
  7  8  2  0
  2  9  1  0
  9 10  1  0
 10 11  2  0
 11 12  1  0
 12 13  2  0
 13 14  1  0
 14 15  2  0
 15 16  1  0
 16 17  1  0
 17 18  2  0
 18 19  1  0
 19 20  2  0
 20 21  1  0
 20 22  1  0
 22 23  2  0
 23 24  1  0
 15 25  1  0
 25 26  2  0
 25 27  1  0
 27 28  1  0
 27 29  1  0
 29 30  2  0
 32 31  1  1
 32 33  1  0
 33 34  1  0
 34 35  2  0
 34 36  1  0
 36 37  1  0
 37 38  1  0
 38 39  2  0
 39 40  1  0
 40 41  2  0
 41 42  1  0
 42 43  2  0
 32 44  1  0
 44 45  2  0
 44 46  1  0
 46 47  1  0
 47 48  1  0
 48 49  1  0
 49 50  1  0
 50 51  1  0
 50 52  2  0
  8  4  1  0
 30 10  1  0
 43 38  1  0
 29 13  1  0
 23 17  1  0
M  END

