
     RDKit          3D

 52 54  0  0  0  0  0  0  0  0999 V2000
    5.8041    0.9781    1.9841 C   0  0  0  0  0  0  0  0  0  0  0  0
    4.2273    0.5398    1.8519 C   0  0  2  0  0  0  0  0  0  0  0  0
    4.5310   -1.0052    1.4135 C   0  0  0  0  0  0  0  0  0  0  0  0
    5.2910   -1.0062    0.2102 N   0  0  0  0  0  0  0  0  0  0  0  0
    6.6179   -0.9901    0.2296 N   0  0  0  0  0  0  0  0  0  0  0  0
    7.1066   -0.9948   -1.0225 C   0  0  0  0  0  0  0  0  0  0  0  0
    6.0430   -1.0144   -1.8280 N   0  0  0  0  0  0  0  0  0  0  0  0
    4.9446   -1.0212   -1.0622 N   0  0  0  0  0  0  0  0  0  0  0  0
    4.0671    1.0526    0.3809 N   0  0  0  0  0  0  0  0  0  0  0  0
    2.7390    0.8487   -0.1627 C   0  0  0  0  0  0  0  0  0  0  0  0
    2.4227    1.2250   -1.4031 N   0  0  0  0  0  0  0  0  0  0  0  0
    1.1949    1.0428   -1.9223 C   0  0  0  0  0  0  0  0  0  0  0  0
    0.2169    0.4456   -1.1534 C   0  0  0  0  0  0  0  0  0  0  0  0
   -1.0625    0.2363   -1.6431 C   0  0  0  0  0  0  0  0  0  0  0  0
   -2.0146   -0.3672   -0.8369 C   0  0  0  0  0  0  0  0  0  0  0  0
   -3.3181   -0.5979   -1.2907 O   0  0  0  0  0  0  0  0  0  0  0  0
   -4.3731   -0.0066   -0.6152 C   0  0  0  0  0  0  0  0  0  0  0  0
   -4.2003    0.8043    0.4847 C   0  0  0  0  0  0  0  0  0  0  0  0
   -5.3087    1.3602    1.1071 C   0  0  0  0  0  0  0  0  0  0  0  0
   -6.5668    1.1104    0.6391 C   0  0  0  0  0  0  0  0  0  0  0  0
   -7.6934    1.6312    1.2128 F   0  0  0  0  0  0  0  0  0  0  0  0
   -6.7307    0.3031   -0.4551 C   0  0  0  0  0  0  0  0  0  0  0  0
   -5.6534   -0.2713   -1.1056 C   0  0  0  0  0  0  0  0  0  0  0  0
   -5.8093   -1.0718   -2.1899 F   0  0  0  0  0  0  0  0  0  0  0  0
   -1.6669   -0.7527    0.4530 C   0  0  0  0  0  0  0  0  0  0  0  0
   -2.5569   -1.2986    1.1581 O   0  0  0  0  0  0  0  0  0  0  0  0
   -0.4174   -0.5372    0.9025 N   0  0  0  0  0  0  0  0  0  0  0  0
   -0.1217   -0.9637    2.2578 C   0  0  0  0  0  0  0  0  0  0  0  0
    0.5183    0.0483    0.1302 C   0  0  0  0  0  0  0  0  0  0  0  0
    1.7696    0.2722    0.5591 N   0  0  0  0  0  0  0  0  0  0  0  0
   -2.3710   -2.8898    1.5411 N   0  0  0  0  0  0  0  0  0  0  0  0
   -2.6779   -2.6201    0.1982 C   0  0  0  0  0  0  0  0  0  0  0  0
   -3.6308   -3.2046   -0.4527 N   0  0  0  0  0  4  0  0  0  0  0  0
   -1.9182   -1.6648   -0.5166 N   0  0  0  0  0  0  0  0  0  0  0  0
   -2.1824   -1.3481   -1.9095 C   0  0  0  0  0  0  0  0  0  0  0  0
   -1.2155   -0.3151   -2.3807 C   0  0  0  0  0  0  0  0  0  0  0  0
   -1.2318    0.9853   -1.6880 C   0  0  0  0  0  0  0  0  0  0  0  0
   -0.9226    0.7258   -0.0887 C   0  0  2  0  0  0  0  0  0  0  0  0
   -1.0286    2.2845    0.2105 N   0  0  0  0  0  0  0  0  0  0  0  0
   -0.2938    2.7195    1.3356 C   0  0  0  0  0  0  0  0  0  0  0  0
    0.3841    1.8985    2.0246 O   0  0  0  0  0  0  0  0  0  0  0  0
   -0.3476    4.1649    1.6777 C   0  0  0  0  0  0  0  0  0  0  0  0
    0.5179    4.4330    2.9091 C   0  0  0  0  0  0  0  0  0  0  0  0
    0.4267    5.8072    3.1814 O   0  0  0  0  0  0  0  0  0  0  0  0
    0.6581    0.7066   -0.2887 C   0  0  0  0  0  0  0  0  0  0  0  0
    1.3103    1.7207   -0.4662 O   0  0  0  0  0  0  0  0  0  0  0  0
    1.2573   -0.5784   -0.2394 N   0  0  0  0  0  0  0  0  0  0  0  0
    2.6909   -0.6497   -0.4128 C   0  0  0  0  0  0  0  0  0  0  0  0
    3.1731   -2.0425   -0.2619 C   0  0  0  0  0  0  0  0  0  0  0  0
    2.6124   -3.0226   -1.1923 C   0  0  0  0  0  0  0  0  0  0  0  0
    2.9977   -4.3733   -1.0719 O   0  0  0  0  0  1  0  0  0  0  0  0
    1.7916   -2.7369   -2.1089 O   0  0  0  0  0  0  0  0  0  0  0  0
  2  1  1  6
  2  3  1  0
  3  4  1  0
  4  5  1  0
  5  6  2  0
  6  7  1  0
  7  8  2  0
  2  9  1  0
  9 10  1  0
 10 11  2  0
 11 12  1  0
 12 13  2  0
 13 14  1  0
 14 15  2  0
 15 16  1  0
 16 17  1  0
 17 18  2  0
 18 19  1  0
 19 20  2  0
 20 21  1  0
 20 22  1  0
 22 23  2  0
 23 24  1  0
 15 25  1  0
 25 26  2  0
 25 27  1  0
 27 28  1  0
 27 29  1  0
 29 30  2  0
 31 32  1  0
 32 33  2  0
 32 34  1  0
 34 35  1  0
 35 36  1  0
 36 37  1  0
 38 37  1  6
 38 39  1  0
 39 40  1  0
 40 41  2  0
 40 42  1  0
 42 43  1  0
 43 44  1  0
 38 45  1  0
 45 46  2  0
 45 47  1  0
 47 48  1  0
 48 49  1  0
 49 50  1  0
 50 51  1  0
 50 52  2  0
  8  4  1  0
 30 10  1  0
 29 13  1  0
 23 17  1  0
M  CHG  1  33   1
M  RAD  1  51   2
M  END

