
     RDKit          3D

 50 52  0  0  0  0  0  0  0  0999 V2000
    2.1966   -3.1694    0.0687 C   0  0  0  0  0  0  0  0  0  0  0  0
    2.8050   -2.9232   -1.2869 C   0  0  0  0  0  0  0  0  0  0  0  0
    3.8369   -4.0147   -1.6179 C   0  0  0  0  0  0  0  0  0  0  0  0
    3.4553   -1.6007   -1.4464 C   0  0  0  0  0  0  0  0  0  0  0  0
    2.6224   -0.4821   -1.2878 N   0  0  0  0  0  0  0  0  0  0  0  0
    1.9051   -0.0759   -0.1588 C   0  0  0  0  0  0  0  0  0  0  0  0
    1.9282   -0.6663    0.8855 O   0  0  0  0  0  0  0  0  0  0  0  0
    1.0121    1.2727   -0.3521 C   0  0  2  0  0  0  0  0  0  0  0  0
    1.8213    2.1369    0.8479 C   0  0  0  0  0  0  0  0  0  0  0  0
    1.1406    3.4328    0.8520 C   0  0  0  0  0  0  0  0  0  0  0  0
    1.6157    4.4631    0.0679 O   0  0  0  0  0  1  0  0  0  0  0  0
    0.1148    3.5465    1.6018 O   0  0  0  0  0  0  0  0  0  0  0  0
   -0.1118    0.7924    0.6807 N   0  0  0  0  0  0  0  0  0  0  0  0
   -1.3280    0.4702    0.0129 C   0  0  0  0  0  0  0  0  0  0  0  0
   -1.4111    0.5886   -1.2267 O   0  0  0  0  0  0  0  0  0  0  0  0
   -2.5328   -0.0155    0.7642 C   0  0  0  0  0  0  0  0  0  0  0  0
   -3.5727   -0.4355   -0.2458 C   0  0  0  0  0  0  0  0  0  0  0  0
   -4.7769   -0.9403    0.4524 C   0  0  0  0  0  0  0  0  0  0  0  0
   -5.8640   -1.5211   -0.3142 N   0  0  0  0  0  0  0  0  0  0  0  0
   -4.8567   -0.8585    1.7026 O   0  0  0  0  0  0  0  0  0  0  0  0
    4.2350    1.7269   -1.6450 C   0  0  0  0  0  0  0  0  0  0  0  0
    4.9698    1.8064   -0.1924 C   0  0  2  0  0  0  0  0  0  0  0  0
    6.2539    0.8866   -0.5507 C   0  0  0  0  0  0  0  0  0  0  0  0
    5.8979   -0.4045   -0.9389 N   0  0  0  0  0  0  0  0  0  0  0  0
    5.6500   -0.7631   -2.2108 N   0  0  0  0  0  0  0  0  0  0  0  0
    5.3359   -2.0558   -2.2673 C   0  0  0  0  0  0  0  0  0  0  0  0
    5.3883   -2.5067   -1.0215 N   0  0  0  0  0  0  0  0  0  0  0  0
    5.7224   -1.5178   -0.2447 N   0  0  0  0  0  0  0  0  0  0  0  0
    4.1479    0.6394    0.4163 N   0  0  0  0  0  0  0  0  0  0  0  0
    2.7563    0.8924    0.4231 C   0  0  0  0  0  0  0  0  0  0  0  0
    2.2313    2.0319   -0.0540 N   0  0  0  0  0  0  0  0  0  0  0  0
    0.9132    2.2977   -0.0596 C   0  0  0  0  0  0  0  0  0  0  0  0
    0.0094    1.3737    0.4448 C   0  0  0  0  0  0  0  0  0  0  0  0
   -1.3476    1.6229    0.4503 C   0  0  0  0  0  0  0  0  0  0  0  0
   -2.1738    0.6518    0.9694 C   0  0  0  0  0  0  0  0  0  0  0  0
   -3.5251    0.9004    0.9746 O   0  0  0  0  0  0  0  0  0  0  0  0
   -4.3603    0.0362    0.2780 C   0  0  0  0  0  0  0  0  0  0  0  0
   -3.9016   -1.0615   -0.4204 C   0  0  0  0  0  0  0  0  0  0  0  0
   -4.8161   -1.8721   -1.0899 C   0  0  0  0  0  0  0  0  0  0  0  0
   -6.1826   -1.5921   -1.0649 C   0  0  0  0  0  0  0  0  0  0  0  0
   -6.9939   -2.4289   -1.7398 F   0  0  0  0  0  0  0  0  0  0  0  0
   -6.6359   -0.4929   -0.3649 C   0  0  0  0  0  0  0  0  0  0  0  0
   -5.7111    0.3084    0.2995 C   0  0  0  0  0  0  0  0  0  0  0  0
   -6.2207    1.3789    0.9730 F   0  0  0  0  0  0  0  0  0  0  0  0
   -1.6440   -0.5202    1.4609 C   0  0  0  0  0  0  0  0  0  0  0  0
   -2.3887   -1.4258    1.9428 O   0  0  0  0  0  0  0  0  0  0  0  0
   -0.3182   -0.7214    1.4361 N   0  0  0  0  0  0  0  0  0  0  0  0
    0.2999   -1.9449    1.9436 C   0  0  0  0  0  0  0  0  0  0  0  0
    0.5402    0.2010    0.9365 C   0  0  0  0  0  0  0  0  0  0  0  0
    1.8682   -0.0098    0.9160 N   0  0  0  0  0  0  0  0  0  0  0  0
  1  2  1  0
  2  3  1  0
  2  4  1  0
  4  5  1  0
  5  6  1  0
  6  7  2  0
  6  8  1  0
  8  9  1  1
  9 10  1  0
 10 11  1  0
 10 12  2  0
  8 13  1  0
 13 14  1  0
 14 15  2  0
 14 16  1  0
 16 17  1  0
 17 18  1  0
 18 19  1  0
 18 20  2  0
 22 21  1  6
 22 23  1  0
 23 24  1  0
 24 25  1  0
 25 26  2  0
 26 27  1  0
 27 28  2  0
 22 29  1  0
 29 30  1  0
 30 31  2  0
 31 32  1  0
 32 33  2  0
 33 34  1  0
 34 35  2  0
 35 36  1  0
 36 37  1  0
 37 38  2  0
 38 39  1  0
 39 40  2  0
 40 41  1  0
 40 42  1  0
 42 43  2  0
 43 44  1  0
 35 45  1  0
 45 46  2  0
 45 47  1  0
 47 48  1  0
 47 49  1  0
 49 50  2  0
 28 24  1  0
 50 30  1  0
 49 33  1  0
 43 37  1  0
M  RAD  1  11   2
M  END

