
     RDKit          3D

 56 59  0  0  0  0  0  0  0  0999 V2000
   -5.7793   -2.8027   -1.2031 C   0  0  0  0  0  0  0  0  0  0  0  0
   -4.3678   -3.2795   -0.8353 C   0  0  0  0  0  0  0  0  0  0  0  0
   -4.4886   -3.3194    0.7824 C   0  0  2  0  0  0  0  0  0  0  0  0
   -4.8450   -1.7405    0.9182 C   0  0  0  0  0  0  0  0  0  0  0  0
   -2.9004   -3.2133    1.0318 C   0  0  0  0  0  0  0  0  0  0  0  0
   -2.3387   -2.0244    0.4623 C   0  0  0  0  0  0  0  0  0  0  0  0
   -3.0612   -1.3690   -0.3227 O   0  0  0  0  0  0  0  0  0  0  0  0
   -0.9995   -1.5660    0.7551 N   0  0  0  0  0  0  0  0  0  0  0  0
   -0.6560   -0.2395   -0.0131 C   0  0  1  0  0  0  0  0  0  0  0  0
   -0.8141    0.7072    1.3035 C   0  0  0  0  0  0  0  0  0  0  0  0
   -0.5449    2.0647    0.7831 C   0  0  0  0  0  0  0  0  0  0  0  0
    0.6432    2.7242    0.7697 C   0  0  0  0  0  0  0  0  0  0  0  0
    0.8116    3.9907    0.2517 C   0  0  0  0  0  0  0  0  0  0  0  0
   -0.2443    4.6549   -0.2853 C   0  0  0  0  0  0  0  0  0  0  0  0
   -0.1660    5.9105   -0.8201 O   0  0  0  0  0  0  0  0  0  0  0  0
   -1.4824    4.0363   -0.2998 C   0  0  0  0  0  0  0  0  0  0  0  0
   -1.6202    2.7611    0.2277 C   0  0  0  0  0  0  0  0  0  0  0  0
    0.8800   -0.3761    0.0320 C   0  0  0  0  0  0  0  0  0  0  0  0
    1.3503   -1.3195    0.6507 O   0  0  0  0  0  0  0  0  0  0  0  0
    1.7235    0.5458   -0.6178 N   0  0  0  0  0  0  0  0  0  0  0  0
    3.1913    0.3831   -0.5697 C   0  0  0  0  0  0  0  0  0  0  0  0
    3.4663   -0.9676   -1.2041 C   0  0  0  0  0  0  0  0  0  0  0  0
    4.9041   -1.3148   -1.2365 C   0  0  0  0  0  0  0  0  0  0  0  0
    5.5409   -1.3771    0.1010 C   0  0  0  0  0  0  0  0  0  0  0  0
    6.9056   -1.7754    0.1329 N   0  0  0  0  0  0  0  0  0  0  0  0
    4.8914   -1.0936    1.1117 O   0  0  0  0  0  0  0  0  0  0  0  0
    3.1391   -0.2114    1.9972 C   0  0  0  0  0  0  0  0  0  0  0  0
    4.2169   -0.3454    0.7393 C   0  0  2  0  0  0  0  0  0  0  0  0
    5.4533    0.3458    1.6460 C   0  0  0  0  0  0  0  0  0  0  0  0
    6.5087    0.2898    0.6233 N   0  0  0  0  0  0  0  0  0  0  0  0
    6.7897    1.2233   -0.2713 N   0  0  0  0  0  0  0  0  0  0  0  0
    7.8321    0.7214   -0.9883 C   0  0  0  0  0  0  0  0  0  0  0  0
    8.1456   -0.4873   -0.5099 N   0  0  0  0  0  0  0  0  0  0  0  0
    7.3207   -0.7467    0.4883 N   0  0  0  0  0  0  0  0  0  0  0  0
    3.8068    1.0531    0.1230 N   0  0  0  0  0  0  0  0  0  0  0  0
    2.4170    1.0763   -0.2292 C   0  0  0  0  0  0  0  0  0  0  0  0
    1.8790    2.1982   -0.7752 N   0  0  0  0  0  0  0  0  0  0  0  0
    0.5878    2.2727   -1.1219 C   0  0  0  0  0  0  0  0  0  0  0  0
   -0.2618    1.1971   -0.9359 C   0  0  0  0  0  0  0  0  0  0  0  0
   -1.5958    1.2464   -1.2839 C   0  0  0  0  0  0  0  0  0  0  0  0
   -2.3612    0.1256   -1.0605 C   0  0  0  0  0  0  0  0  0  0  0  0
   -3.6975    0.1673   -1.4062 O   0  0  0  0  0  0  0  0  0  0  0  0
   -4.6386   -0.0318   -0.4082 C   0  0  0  0  0  0  0  0  0  0  0  0
   -4.2742   -0.2677    0.9060 C   0  0  0  0  0  0  0  0  0  0  0  0
   -5.2375   -0.4602    1.8660 C   0  0  0  0  0  0  0  0  0  0  0  0
   -6.5729   -0.4273    1.5680 C   0  0  0  0  0  0  0  0  0  0  0  0
   -7.5103   -0.6207    2.5356 F   0  0  0  0  0  0  0  0  0  0  0  0
   -6.9211   -0.1890    0.2421 C   0  0  0  0  0  0  0  0  0  0  0  0
   -5.9674    0.0044   -0.7234 C   0  0  0  0  0  0  0  0  0  0  0  0
   -6.3156    0.2377   -2.0223 F   0  0  0  0  0  0  0  0  0  0  0  0
   -1.7991   -1.0010   -0.5067 C   0  0  0  0  0  0  0  0  0  0  0  0
   -2.4905   -2.0523   -0.2906 O   0  0  0  0  0  0  0  0  0  0  0  0
   -0.4990   -0.9977   -0.1865 N   0  0  0  0  0  0  0  0  0  0  0  0
    0.1279   -2.1846    0.4054 C   0  0  0  0  0  0  0  0  0  0  0  0
    0.3091    0.0657   -0.3782 C   0  0  0  0  0  0  0  0  0  0  0  0
    1.6086    0.0251   -0.0420 N   0  0  0  0  0  0  0  0  0  0  0  0
  1  2  1  0
  2  3  1  0
  3  4  1  1
  3  5  1  0
  5  6  1  0
  6  7  2  0
  6  8  1  0
  8  9  1  0
  9 10  1  1
 10 11  1  0
 11 12  2  0
 12 13  1  0
 13 14  2  0
 14 15  1  0
 14 16  1  0
 16 17  2  0
  9 18  1  0
 18 19  2  0
 18 20  1  0
 20 21  1  0
 21 22  1  0
 22 23  1  0
 23 24  1  0
 24 25  1  0
 24 26  2  0
 28 27  1  1
 28 29  1  0
 29 30  1  0
 30 31  1  0
 31 32  2  0
 32 33  1  0
 33 34  2  0
 28 35  1  0
 35 36  1  0
 36 37  2  0
 37 38  1  0
 38 39  2  0
 39 40  1  0
 40 41  2  0
 41 42  1  0
 42 43  1  0
 43 44  2  0
 44 45  1  0
 45 46  2  0
 46 47  1  0
 46 48  1  0
 48 49  2  0
 49 50  1  0
 41 51  1  0
 51 52  2  0
 51 53  1  0
 53 54  1  0
 53 55  1  0
 55 56  2  0
 17 11  1  0
 34 30  1  0
 56 36  1  0
 55 39  1  0
 49 43  1  0
M  END

