
     RDKit          3D

 49 51  0  0  0  0  0  0  0  0999 V2000
    4.7622    1.7988    1.1021 C   0  0  0  0  0  0  0  0  0  0  0  0
    4.0479    1.7931   -0.2340 C   0  0  0  0  0  0  0  0  0  0  0  0
    4.3844    0.3246   -0.8589 C   0  0  2  0  0  0  0  0  0  0  0  0
    3.5290    0.5861   -2.2304 C   0  0  0  0  0  0  0  0  0  0  0  0
    3.2327   -0.4444   -0.0141 C   0  0  0  0  0  0  0  0  0  0  0  0
    1.9674    0.0896   -0.3381 N   0  0  0  0  0  0  0  0  0  0  0  0
    0.7980   -0.4290    0.2610 C   0  0  0  0  0  0  0  0  0  0  0  0
    0.8992   -1.3391    1.0607 O   0  0  0  0  0  0  0  0  0  0  0  0
   -0.5961    0.2071   -0.1475 C   0  0  1  0  0  0  0  0  0  0  0  0
   -1.4831   -0.7399    0.7226 N   0  0  0  0  0  0  0  0  0  0  0  0
   -2.6014   -1.2871    0.0644 C   0  0  0  0  0  0  0  0  0  0  0  0
   -2.7944   -0.9817   -1.1339 O   0  0  0  0  0  0  0  0  0  0  0  0
   -3.5699   -2.2081    0.7064 C   0  0  0  0  0  0  0  0  0  0  0  0
   -4.6496   -2.6161   -0.2438 C   0  0  0  0  0  0  0  0  0  0  0  0
   -5.5414   -3.4801    0.3924 O   0  0  0  0  0  0  0  0  0  0  0  0
   -0.5669    1.4106    1.0658 C   0  0  1  0  0  0  0  0  0  0  0  0
    0.7895    2.0865    0.5264 C   0  0  0  0  0  0  0  0  0  0  0  0
   -1.5700    2.4122    0.3031 C   0  0  0  0  0  0  0  0  0  0  0  0
   -1.0378    2.8168   -1.0040 C   0  0  0  0  0  0  0  0  0  0  0  0
    3.9083   -2.8188    1.3494 C   0  0  0  0  0  0  0  0  0  0  0  0
    4.9087   -1.6252    0.8110 C   0  0  2  0  0  0  0  0  0  0  0  0
    3.9155   -0.4301    1.3365 C   0  0  0  0  0  0  0  0  0  0  0  0
    4.5896    0.7980    0.9721 N   0  0  0  0  0  0  0  0  0  0  0  0
    4.4366    1.4361   -0.1647 N   0  0  0  0  0  0  0  0  0  0  0  0
    5.2357    2.5128   -0.0921 C   0  0  0  0  0  0  0  0  0  0  0  0
    5.8574    2.4839    1.1173 N   0  0  0  0  0  0  0  0  0  0  0  0
    5.4437    1.4089    1.7680 N   0  0  0  0  0  0  0  0  0  0  0  0
    4.3751   -1.5994   -0.6516 N   0  0  0  0  0  0  0  0  0  0  0  0
    3.0363   -1.3981   -0.9414 C   0  0  0  0  0  0  0  0  0  0  0  0
    2.5247   -1.3619   -2.1612 N   0  0  0  0  0  0  0  0  0  0  0  0
    1.2102   -1.1670   -2.3555 C   0  0  0  0  0  0  0  0  0  0  0  0
    0.3491   -0.9980   -1.2884 C   0  0  0  0  0  0  0  0  0  0  0  0
   -0.9887   -0.7972   -1.4305 C   0  0  0  0  0  0  0  0  0  0  0  0
   -1.8644   -0.6234   -0.2995 C   0  0  0  0  0  0  0  0  0  0  0  0
   -3.1382   -0.4379   -0.5635 O   0  0  0  0  0  0  0  0  0  0  0  0
   -4.2205    0.3161   -0.5253 C   0  0  0  0  0  0  0  0  0  0  0  0
   -4.7455    0.7185   -1.8081 C   0  0  0  0  0  0  0  0  0  0  0  0
   -5.8523    1.4924   -1.8686 C   0  0  0  0  0  0  0  0  0  0  0  0
   -6.5390    1.9403   -0.7669 C   0  0  0  0  0  0  0  0  0  0  0  0
   -7.6382    2.7129   -0.8694 F   0  0  0  0  0  0  0  0  0  0  0  0
   -6.0465    1.5611    0.4539 C   0  0  0  0  0  0  0  0  0  0  0  0
   -4.8928    0.7524    0.5710 C   0  0  0  0  0  0  0  0  0  0  0  0
   -4.4878    0.4025    1.8032 F   0  0  0  0  0  0  0  0  0  0  0  0
   -1.2805   -0.6716    0.9279 C   0  0  0  0  0  0  0  0  0  0  0  0
   -1.9197   -0.5385    2.0227 O   0  0  0  0  0  0  0  0  0  0  0  0
    0.0708   -0.8759    1.0148 N   0  0  0  0  0  0  0  0  0  0  0  0
    0.6790   -0.9236    2.3411 C   0  0  0  0  0  0  0  0  0  0  0  0
    0.8781   -1.0358   -0.0349 C   0  0  0  0  0  0  0  0  0  0  0  0
    2.1954   -1.2333    0.0941 N   0  0  0  0  0  0  0  0  0  0  0  0
  1  2  1  0
  2  3  1  0
  3  4  1  6
  3  5  1  0
  5  6  1  0
  6  7  1  0
  7  8  2  0
  7  9  1  0
  9 10  1  1
 10 11  1  0
 11 12  2  0
 11 13  1  0
 13 14  1  0
 14 15  1  0
  9 16  1  0
 16 17  1  6
 16 18  1  0
 18 19  1  0
 21 20  1  1
 21 22  1  0
 22 23  1  0
 23 24  1  0
 24 25  2  0
 25 26  1  0
 26 27  2  0
 21 28  1  0
 28 29  1  0
 29 30  2  0
 30 31  1  0
 31 32  2  0
 32 33  1  0
 33 34  2  0
 34 35  1  0
 35 36  1  0
 36 37  2  0
 37 38  1  0
 38 39  2  0
 39 40  1  0
 39 41  1  0
 41 42  2  0
 42 43  1  0
 34 44  1  0
 44 45  2  0
 44 46  1  0
 46 47  1  0
 46 48  1  0
 48 49  2  0
 27 23  1  0
 49 29  1  0
 48 32  1  0
 42 36  1  0
M  END

