
     RDKit          3D

 53 57  0  0  0  0  0  0  0  0999 V2000
    3.6092   -1.7633   -1.4315 C   0  0  0  0  0  0  0  0  0  0  0  0
    2.0451   -2.2321   -1.3687 C   0  0  1  0  0  0  0  0  0  0  0  0
    1.9073   -2.0580    0.1006 O   0  0  0  0  0  0  0  0  0  0  0  0
    1.4262   -0.7908   -1.9605 C   0  0  2  0  0  0  0  0  0  0  0  0
    2.2616    0.2770   -1.4422 N   0  0  0  0  0  0  0  0  0  0  0  0
    2.6332    0.8010   -0.2987 C   0  0  0  0  0  0  0  0  0  0  0  0
    2.2006    0.3207    0.7594 O   0  0  0  0  0  0  0  0  0  0  0  0
    3.6275    2.0437   -0.1594 C   0  0  2  0  0  0  0  0  0  0  0  0
    5.0600    1.2608   -0.3126 C   0  0  0  0  0  0  0  0  0  0  0  0
    5.1499    0.4673    0.9186 C   0  0  0  0  0  0  0  0  0  0  0  0
    4.0558    0.8617    1.8383 C   0  0  0  0  0  0  0  0  0  0  0  0
    3.6766    2.1353    1.3835 N   0  0  0  0  0  0  0  0  0  0  0  0
    0.0912   -0.6667   -1.2192 C   0  0  0  0  0  0  0  0  0  0  0  0
   -0.0158    0.2826   -0.4413 O   0  0  0  0  0  0  0  0  0  0  0  0
   -0.9784   -1.5298   -1.3618 N   0  0  0  0  0  0  0  0  0  0  0  0
   -2.2479   -1.4252   -0.6671 C   0  0  0  0  0  0  0  0  0  0  0  0
   -2.8060   -0.0635   -1.0831 C   0  0  0  0  0  0  0  0  0  0  0  0
   -4.0927    0.1448   -0.4324 C   0  0  0  0  0  0  0  0  0  0  0  0
   -4.0990    0.7563    0.8048 C   0  0  0  0  0  0  0  0  0  0  0  0
   -5.3197    0.9685    1.4487 C   0  0  0  0  0  0  0  0  0  0  0  0
   -6.4696    0.5447    0.7939 C   0  0  0  0  0  0  0  0  0  0  0  0
   -6.4637   -0.0629   -0.4354 C   0  0  0  0  0  0  0  0  0  0  0  0
   -5.2512   -0.2719   -1.0710 C   0  0  0  0  0  0  0  0  0  0  0  0
    5.9503   -0.8561   -0.5168 C   0  0  0  0  0  0  0  0  0  0  0  0
    4.4077   -0.2009   -0.5965 C   0  0  2  0  0  0  0  0  0  0  0  0
    4.2267   -0.3046    1.0670 C   0  0  0  0  0  0  0  0  0  0  0  0
    5.2964    0.5112    1.5790 N   0  0  0  0  0  0  0  0  0  0  0  0
    6.5060    0.0142    1.8508 N   0  0  0  0  0  0  0  0  0  0  0  0
    7.2665    1.0164    2.3062 C   0  0  0  0  0  0  0  0  0  0  0  0
    6.5133    2.1278    2.3106 N   0  0  0  0  0  0  0  0  0  0  0  0
    5.3227    1.7784    1.8616 N   0  0  0  0  0  0  0  0  0  0  0  0
    3.7461   -1.6232   -0.8265 N   0  0  0  0  0  0  0  0  0  0  0  0
    2.3423   -1.5848   -0.9631 C   0  0  0  0  0  0  0  0  0  0  0  0
    1.6978   -2.7382   -1.1606 N   0  0  0  0  0  0  0  0  0  0  0  0
    0.3590   -2.7614   -1.2977 C   0  0  0  0  0  0  0  0  0  0  0  0
   -0.3951   -1.5994   -1.2398 C   0  0  0  0  0  0  0  0  0  0  0  0
   -1.7672   -1.5856   -1.3761 C   0  0  0  0  0  0  0  0  0  0  0  0
   -2.4723   -0.3942   -1.3098 C   0  0  0  0  0  0  0  0  0  0  0  0
   -3.8658   -0.3567   -1.4455 O   0  0  0  0  0  0  0  0  0  0  0  0
   -4.6003    0.1399   -0.4072 C   0  0  0  0  0  0  0  0  0  0  0  0
   -5.4111    1.2394   -0.5853 C   0  0  0  0  0  0  0  0  0  0  0  0
   -6.1690    1.7708    0.4402 C   0  0  0  0  0  0  0  0  0  0  0  0
   -6.1144    1.1834    1.6848 C   0  0  0  0  0  0  0  0  0  0  0  0
   -6.8657    1.7084    2.7057 F   0  0  0  0  0  0  0  0  0  0  0  0
   -5.3134    0.0818    1.8972 C   0  0  0  0  0  0  0  0  0  0  0  0
   -4.5550   -0.4376    0.8415 C   0  0  0  0  0  0  0  0  0  0  0  0
   -3.7658   -1.5220    1.0487 F   0  0  0  0  0  0  0  0  0  0  0  0
   -1.7611    0.7721   -1.1042 C   0  0  0  0  0  0  0  0  0  0  0  0
   -2.4050    1.8520   -1.0447 O   0  0  0  0  0  0  0  0  0  0  0  0
   -0.4215    0.7158   -0.9761 N   0  0  0  0  0  0  0  0  0  0  0  0
    0.3182    1.9394   -0.7611 C   0  0  0  0  0  0  0  0  0  0  0  0
    0.2973   -0.4260   -1.0353 C   0  0  0  0  0  0  0  0  0  0  0  0
    1.6322   -0.4604   -0.9051 N   0  0  0  0  0  0  0  0  0  0  0  0
  2  1  1  1
  2  3  1  0
  2  4  1  0
  4  5  1  1
  5  6  1  0
  6  7  2  0
  8  6  1  1
  8  9  1  0
  9 10  1  0
 10 11  1  0
 11 12  1  0
  4 13  1  0
 13 14  2  0
 13 15  1  0
 15 16  1  0
 16 17  1  0
 17 18  1  0
 18 19  2  0
 19 20  1  0
 20 21  2  0
 21 22  1  0
 22 23  2  0
 25 24  1  1
 25 26  1  0
 26 27  1  0
 27 28  1  0
 28 29  2  0
 29 30  1  0
 30 31  2  0
 25 32  1  0
 32 33  1  0
 33 34  2  0
 34 35  1  0
 35 36  2  0
 36 37  1  0
 37 38  2  0
 38 39  1  0
 39 40  1  0
 40 41  2  0
 41 42  1  0
 42 43  2  0
 43 44  1  0
 43 45  1  0
 45 46  2  0
 46 47  1  0
 38 48  1  0
 48 49  2  0
 48 50  1  0
 50 51  1  0
 50 52  1  0
 52 53  2  0
 12  8  1  0
 23 18  1  0
 31 27  1  0
 53 33  1  0
 52 36  1  0
 46 40  1  0
M  END

