
     RDKit          3D

 53 56  0  0  0  0  0  0  0  0999 V2000
    1.4599    2.8859    0.4080 C   0  0  0  0  0  0  0  0  0  0  0  0
    1.9998    2.6136   -1.1757 C   0  0  1  0  0  0  0  0  0  0  0  0
    2.7623    3.9794   -1.1289 O   0  0  0  0  0  0  0  0  0  0  0  0
    3.3342    1.7787   -0.6468 C   0  0  0  0  0  0  0  0  0  0  0  0
    3.0027    0.4120   -0.6055 N   0  0  0  0  0  0  0  0  0  0  0  0
    2.0587   -0.3202    0.0803 C   0  0  0  0  0  0  0  0  0  0  0  0
    1.3037    0.2421    0.8367 O   0  0  0  0  0  0  0  0  0  0  0  0
    1.8797   -1.8638   -0.0442 C   0  0  2  0  0  0  0  0  0  0  0  0
    1.0954   -1.9454   -1.4725 C   0  0  0  0  0  0  0  0  0  0  0  0
    0.8627   -3.3868   -1.7026 C   0  0  0  0  0  0  0  0  0  0  0  0
    0.2129   -3.7746   -2.8460 O   0  0  0  0  0  1  0  0  0  0  0  0
    1.2592   -4.2169   -0.8560 O   0  0  0  0  0  0  0  0  0  0  0  0
    0.6742   -2.1503    0.8524 N   0  0  0  0  0  0  0  0  0  0  0  0
   -0.5453   -1.5984    0.4830 C   0  0  0  0  0  0  0  0  0  0  0  0
   -0.5192   -0.9329   -0.5508 O   0  0  0  0  0  0  0  0  0  0  0  0
   -1.8260   -1.7478    1.2194 C   0  0  0  0  0  0  0  0  0  0  0  0
   -2.9583   -1.0065    0.6338 C   0  0  0  0  0  0  0  0  0  0  0  0
   -2.8248    0.4543    0.5525 C   0  0  0  0  0  0  0  0  0  0  0  0
   -2.3386    1.0268   -0.5749 C   0  0  0  0  0  0  0  0  0  0  0  0
   -2.1701    2.3863   -0.7546 C   0  0  0  0  0  0  0  0  0  0  0  0
   -2.5223    3.2146    0.2869 C   0  0  0  0  0  0  0  0  0  0  0  0
   -3.0212    2.6551    1.4484 C   0  0  0  0  0  0  0  0  0  0  0  0
   -3.1798    1.2947    1.6039 C   0  0  0  0  0  0  0  0  0  0  0  0
    3.5519   -2.1065   -0.0527 C   0  0  0  0  0  0  0  0  0  0  0  0
    4.2570   -0.7180   -0.6297 C   0  0  2  0  0  0  0  0  0  0  0  0
    5.6705   -1.0038    0.2109 C   0  0  0  0  0  0  0  0  0  0  0  0
    6.4293    0.1561   -0.1924 N   0  0  0  0  0  0  0  0  0  0  0  0
    6.4549    1.3162    0.4160 N   0  0  0  0  0  0  0  0  0  0  0  0
    7.2911    2.1248   -0.2889 C   0  0  0  0  0  0  0  0  0  0  0  0
    7.7523    1.4030   -1.3257 N   0  0  0  0  0  0  0  0  0  0  0  0
    7.2170    0.1987   -1.2554 N   0  0  0  0  0  0  0  0  0  0  0  0
    3.6564    0.1779    0.5160 N   0  0  0  0  0  0  0  0  0  0  0  0
    2.2406    0.1512    0.5145 C   0  0  0  0  0  0  0  0  0  0  0  0
    1.5417    0.8756    1.4457 N   0  0  0  0  0  0  0  0  0  0  0  0
    0.2146    0.8680    1.4663 C   0  0  0  0  0  0  0  0  0  0  0  0
   -0.4610    0.1110    0.5252 C   0  0  0  0  0  0  0  0  0  0  0  0
   -1.8464    0.0541    0.4848 C   0  0  0  0  0  0  0  0  0  0  0  0
   -2.4913   -0.7098   -0.4657 C   0  0  0  0  0  0  0  0  0  0  0  0
   -3.8646   -0.8092   -0.5600 O   0  0  0  0  0  0  0  0  0  0  0  0
   -4.7371   -0.1520    0.2903 C   0  0  0  0  0  0  0  0  0  0  0  0
   -5.6062   -0.9156    1.0486 C   0  0  0  0  0  0  0  0  0  0  0  0
   -6.5057   -0.3375    1.9190 C   0  0  0  0  0  0  0  0  0  0  0  0
   -6.5753    1.0313    2.0692 C   0  0  0  0  0  0  0  0  0  0  0  0
   -7.4641    1.5903    2.9284 F   0  0  0  0  0  0  0  0  0  0  0  0
   -5.6992    1.7941    1.3042 C   0  0  0  0  0  0  0  0  0  0  0  0
   -4.8009    1.2065    0.4344 C   0  0  0  0  0  0  0  0  0  0  0  0
   -3.9556    1.9608   -0.3025 F   0  0  0  0  0  0  0  0  0  0  0  0
   -1.7367   -1.4193   -1.3794 C   0  0  0  0  0  0  0  0  0  0  0  0
   -2.2993   -2.1252   -2.2584 O   0  0  0  0  0  0  0  0  0  0  0  0
   -0.3795   -1.3760   -1.3555 N   0  0  0  0  0  0  0  0  0  0  0  0
    0.3579   -2.1491   -2.3492 C   0  0  0  0  0  0  0  0  0  0  0  0
    0.2266   -0.6261   -0.4218 C   0  0  0  0  0  0  0  0  0  0  0  0
    1.5610   -0.5715   -0.3832 N   0  0  0  0  0  0  0  0  0  0  0  0
  2  1  1  1
  2  3  1  0
  2  4  1  0
  4  5  1  0
  5  6  1  0
  6  7  2  0
  6  8  1  0
  8  9  1  6
  9 10  1  0
 10 11  1  0
 10 12  2  0
  8 13  1  0
 13 14  1  0
 14 15  2  0
 14 16  1  0
 16 17  1  0
 17 18  1  0
 18 19  2  0
 19 20  1  0
 20 21  2  0
 21 22  1  0
 22 23  2  0
 25 24  1  1
 25 26  1  0
 26 27  1  0
 27 28  1  0
 28 29  2  0
 29 30  1  0
 30 31  2  0
 25 32  1  0
 32 33  1  0
 33 34  2  0
 34 35  1  0
 35 36  2  0
 36 37  1  0
 37 38  2  0
 38 39  1  0
 39 40  1  0
 40 41  2  0
 41 42  1  0
 42 43  2  0
 43 44  1  0
 43 45  1  0
 45 46  2  0
 46 47  1  0
 38 48  1  0
 48 49  2  0
 48 50  1  0
 50 51  1  0
 50 52  1  0
 52 53  2  0
 23 18  1  0
 31 27  1  0
 53 33  1  0
 52 36  1  0
 46 40  1  0
M  RAD  1  11   2
M  END

