
     RDKit          3D

 54 57  0  0  0  0  0  0  0  0999 V2000
    5.9226    3.3915   -1.4830 C   0  0  0  0  0  0  0  0  0  0  0  0
    4.9086    2.5462   -0.2347 S   0  0  0  0  0  0  0  0  0  0  0  0
    5.8617    1.3852    0.7441 C   0  0  0  0  0  0  0  0  0  0  0  0
    5.0454    0.7276    1.7678 C   0  0  0  0  0  0  0  0  0  0  0  0
    3.9313   -0.0978    1.5350 C   0  0  0  0  0  0  0  0  0  0  0  0
    2.7056    0.2951    0.8773 C   0  0  0  0  0  0  0  0  0  0  0  0
    2.4761    1.4392    0.3867 O   0  0  0  0  0  0  0  0  0  0  0  0
    1.5889   -0.6229    0.7183 N   0  0  0  0  0  0  0  0  0  0  0  0
    0.3320   -0.0935    0.0035 C   0  0  1  0  0  0  0  0  0  0  0  0
    0.0972   -1.3563   -0.9687 C   0  0  0  0  0  0  0  0  0  0  0  0
    1.2381   -1.5934   -1.8576 C   0  0  0  0  0  0  0  0  0  0  0  0
    0.8618   -2.8115   -2.7180 C   0  0  0  0  0  0  0  0  0  0  0  0
    0.5928   -4.0302   -1.8461 C   0  0  0  0  0  0  0  0  0  0  0  0
   -0.5193   -3.7749   -0.9147 N   0  0  0  0  0  4  0  0  0  0  0  0
   -0.7543   -0.6336    1.0776 C   0  0  0  0  0  0  0  0  0  0  0  0
   -0.4607   -1.0794    2.1460 O   0  0  0  0  0  0  0  0  0  0  0  0
   -2.1016   -0.5283    0.6049 N   0  0  0  0  0  0  0  0  0  0  0  0
   -3.1749   -0.9821    1.4721 C   0  0  0  0  0  0  0  0  0  0  0  0
   -4.4510   -0.8195    0.7046 C   0  0  0  0  0  0  0  0  0  0  0  0
   -4.6390    0.6005    0.3440 C   0  0  0  0  0  0  0  0  0  0  0  0
   -5.6787    1.1372   -0.4222 C   0  0  0  0  0  0  0  0  0  0  0  0
   -5.5045    2.4586   -0.5207 N   0  0  0  0  0  0  0  0  0  0  0  0
   -4.3905    2.7828    0.1557 C   0  0  0  0  0  0  0  0  0  0  0  0
   -3.8877    1.6594    0.6654 N   0  0  0  0  0  0  0  0  0  0  0  0
   -5.8666   -0.1254   -2.3438 C   0  0  0  0  0  0  0  0  0  0  0  0
   -4.7767   -0.8227   -1.3212 C   0  0  2  0  0  0  0  0  0  0  0  0
   -5.0025    0.3193   -0.1528 C   0  0  0  0  0  0  0  0  0  0  0  0
   -6.3839    0.2505    0.2028 N   0  0  0  0  0  0  0  0  0  0  0  0
   -7.3969    0.9107   -0.3204 N   0  0  0  0  0  0  0  0  0  0  0  0
   -8.5380    0.5551    0.3030 C   0  0  0  0  0  0  0  0  0  0  0  0
   -8.1810   -0.3461    1.2247 N   0  0  0  0  0  0  0  0  0  0  0  0
   -6.8647   -0.5215    1.1516 N   0  0  0  0  0  0  0  0  0  0  0  0
   -3.5493   -0.1130   -1.9882 N   0  0  0  0  0  0  0  0  0  0  0  0
   -2.2747   -0.3619   -1.4817 C   0  0  0  0  0  0  0  0  0  0  0  0
   -2.1962   -1.2100   -0.4377 N   0  0  0  0  0  0  0  0  0  0  0  0
   -1.0466   -1.5514    0.1614 C   0  0  0  0  0  0  0  0  0  0  0  0
    0.1376   -1.0182   -0.2977 C   0  0  0  0  0  0  0  0  0  0  0  0
    1.3385   -1.3140    0.2550 C   0  0  0  0  0  0  0  0  0  0  0  0
    2.5813   -0.7645   -0.2140 C   0  0  0  0  0  0  0  0  0  0  0  0
    3.6877   -1.1314    0.4068 O   0  0  0  0  0  0  0  0  0  0  0  0
    4.6802   -0.6292    1.1503 C   0  0  0  0  0  0  0  0  0  0  0  0
    4.7316   -1.1108    2.5125 C   0  0  0  0  0  0  0  0  0  0  0  0
    5.6746   -0.7032    3.3928 C   0  0  0  0  0  0  0  0  0  0  0  0
    6.6437    0.2111    3.0049 C   0  0  0  0  0  0  0  0  0  0  0  0
    7.5880    0.6212    3.8836 F   0  0  0  0  0  0  0  0  0  0  0  0
    6.5929    0.6615    1.7230 C   0  0  0  0  0  0  0  0  0  0  0  0
    5.6441    0.2686    0.7902 C   0  0  0  0  0  0  0  0  0  0  0  0
    5.7420    0.7752   -0.4532 F   0  0  0  0  0  0  0  0  0  0  0  0
    2.4248    0.0821   -1.2708 C   0  0  0  0  0  0  0  0  0  0  0  0
    3.3925    0.6560   -1.8208 O   0  0  0  0  0  0  0  0  0  0  0  0
    1.2031    0.3759   -1.8235 N   0  0  0  0  0  0  0  0  0  0  0  0
    1.0925    1.2910   -2.9548 C   0  0  0  0  0  0  0  0  0  0  0  0
    0.0584   -0.1496   -1.3667 C   0  0  0  0  0  0  0  0  0  0  0  0
   -1.1364    0.1443   -1.9153 N   0  0  0  0  0  0  0  0  0  0  0  0
  1  2  1  0
  2  3  1  0
  3  4  1  0
  4  5  1  0
  5  6  1  0
  6  7  2  0
  6  8  1  0
  8  9  1  0
  9 10  1  6
 10 11  1  0
 11 12  1  0
 12 13  1  0
 13 14  1  0
  9 15  1  0
 15 16  2  0
 15 17  1  0
 17 18  1  0
 18 19  1  0
 19 20  1  0
 20 21  2  0
 21 22  1  0
 22 23  1  0
 23 24  2  0
 26 25  1  6
 26 27  1  0
 27 28  1  0
 28 29  1  0
 29 30  2  0
 30 31  1  0
 31 32  2  0
 26 33  1  0
 33 34  1  0
 34 35  2  0
 35 36  1  0
 36 37  2  0
 37 38  1  0
 38 39  2  0
 39 40  1  0
 40 41  1  0
 41 42  2  0
 42 43  1  0
 43 44  2  0
 44 45  1  0
 44 46  1  0
 46 47  2  0
 47 48  1  0
 39 49  1  0
 49 50  2  0
 49 51  1  0
 51 52  1  0
 51 53  1  0
 53 54  2  0
 24 20  1  0
 32 28  1  0
 54 34  1  0
 53 37  1  0
 47 41  1  0
M  CHG  1  14   1
M  END

