
     RDKit          3D

 54 57  0  0  0  0  0  0  0  0999 V2000
   -1.0788    4.6147    0.2741 C   0  0  0  0  0  0  0  0  0  0  0  0
    0.3486    4.7482   -0.5492 C   0  0  1  0  0  0  0  0  0  0  0  0
    0.7450    6.0181    0.2247 O   0  0  0  0  0  0  0  0  0  0  0  0
    1.1626    3.7827    0.5141 C   0  0  0  0  0  0  0  0  0  0  0  0
    0.3790    2.4888    0.4368 C   0  0  0  0  0  0  0  0  0  0  0  0
   -0.6585    2.4641   -0.3148 O   0  0  0  0  0  0  0  0  0  0  0  0
    0.7115    1.3330    1.0932 N   0  0  0  0  0  0  0  0  0  0  0  0
   -0.2650    0.0736    0.8358 C   0  0  1  0  0  0  0  0  0  0  0  0
   -1.1576    0.5787   -0.3093 C   0  0  0  0  0  0  0  0  0  0  0  0
   -2.1876   -0.4502   -0.5551 C   0  0  0  0  0  0  0  0  0  0  0  0
   -2.2148   -1.3577   -1.5479 C   0  0  0  0  0  0  0  0  0  0  0  0
   -3.2438   -2.3128   -1.6927 C   0  0  0  0  0  0  0  0  0  0  0  0
   -4.2854   -2.3525   -0.7798 C   0  0  0  0  0  0  0  0  0  0  0  0
   -5.3221   -3.2353   -0.8671 O   0  0  0  0  0  0  0  0  0  0  0  0
   -4.2687   -1.4193    0.2735 C   0  0  0  0  0  0  0  0  0  0  0  0
   -3.2620   -0.5021    0.3871 C   0  0  0  0  0  0  0  0  0  0  0  0
    0.7794   -0.8250    0.2042 C   0  0  0  0  0  0  0  0  0  0  0  0
    1.2791   -1.7169    1.0440 O   0  0  0  0  0  0  0  0  0  0  0  0
    1.3620   -0.9333   -1.0454 N   0  0  0  0  0  0  0  0  0  0  0  0
    2.4046   -1.9506   -1.3001 C   0  0  0  0  0  0  0  0  0  0  0  0
    3.5038   -2.1226   -0.6100 C   0  0  0  0  0  0  0  0  0  0  0  0
    4.6473   -2.2206    0.0741 C   0  0  0  0  0  0  0  0  0  0  0  0
    5.6432   -1.3112    0.3962 O   0  0  0  0  0  1  0  0  0  0  0  0
    4.9783   -3.3919    0.5638 O   0  0  0  0  0  0  0  0  0  0  0  0
    4.1660    1.2239    2.1102 C   0  0  0  0  0  0  0  0  0  0  0  0
    4.5762   -0.3663    2.3511 C   0  0  2  0  0  0  0  0  0  0  0  0
    4.2041   -0.8008    0.7965 C   0  0  0  0  0  0  0  0  0  0  0  0
    5.1305    0.0495    0.0320 N   0  0  0  0  0  0  0  0  0  0  0  0
    4.8988    1.2585   -0.4080 N   0  0  0  0  0  0  0  0  0  0  0  0
    6.0037    1.6968   -1.0641 C   0  0  0  0  0  0  0  0  0  0  0  0
    6.8848    0.6905   -0.9853 N   0  0  0  0  0  0  0  0  0  0  0  0
    6.3573   -0.3146   -0.3188 N   0  0  0  0  0  0  0  0  0  0  0  0
    3.1939   -0.7736    2.9595 N   0  0  0  0  0  0  0  0  0  0  0  0
    2.0225   -0.6260    2.2429 C   0  0  0  0  0  0  0  0  0  0  0  0
    0.8659   -1.0076    2.8585 N   0  0  0  0  0  0  0  0  0  0  0  0
   -0.3271   -0.9252    2.2940 C   0  0  0  0  0  0  0  0  0  0  0  0
   -0.4178   -0.4276    1.0129 C   0  0  0  0  0  0  0  0  0  0  0  0
   -1.6286   -0.3109    0.3555 C   0  0  0  0  0  0  0  0  0  0  0  0
   -1.7066    0.1866   -0.9227 C   0  0  0  0  0  0  0  0  0  0  0  0
   -2.8942    0.3096   -1.5887 O   0  0  0  0  0  0  0  0  0  0  0  0
   -4.1212   -0.0462   -1.0592 C   0  0  0  0  0  0  0  0  0  0  0  0
   -4.2818   -0.5655    0.2024 C   0  0  0  0  0  0  0  0  0  0  0  0
   -5.5436   -0.8942    0.6533 C   0  0  0  0  0  0  0  0  0  0  0  0
   -6.6749   -0.7224   -0.1192 C   0  0  0  0  0  0  0  0  0  0  0  0
   -7.9187   -1.0520    0.3390 F   0  0  0  0  0  0  0  0  0  0  0  0
   -6.5054   -0.2019   -1.3814 C   0  0  0  0  0  0  0  0  0  0  0  0
   -5.2385    0.1347   -1.8506 C   0  0  0  0  0  0  0  0  0  0  0  0
   -5.0952    0.6474   -3.1009 F   0  0  0  0  0  0  0  0  0  0  0  0
   -0.5418    0.5720   -1.5455 C   0  0  0  0  0  0  0  0  0  0  0  0
   -0.5372    1.0398   -2.7240 O   0  0  0  0  0  0  0  0  0  0  0  0
    0.6565    0.4589   -0.9011 N   0  0  0  0  0  0  0  0  0  0  0  0
    1.8590    0.8710   -1.5826 C   0  0  0  0  0  0  0  0  0  0  0  0
    0.7224   -0.0290    0.3494 C   0  0  0  0  0  0  0  0  0  0  0  0
    1.8911   -0.1464    0.9948 N   0  0  0  0  0  0  0  0  0  0  0  0
  2  1  1  1
  2  3  1  0
  2  4  1  0
  4  5  1  0
  5  6  2  0
  5  7  1  0
  7  8  1  0
  8  9  1  6
  9 10  1  0
 10 11  2  0
 11 12  1  0
 12 13  2  0
 13 14  1  0
 13 15  1  0
 15 16  2  0
  8 17  1  0
 17 18  2  0
 17 19  1  0
 19 20  1  0
 20 21  1  0
 21 22  1  0
 22 23  1  0
 22 24  2  0
 26 25  1  6
 26 27  1  0
 27 28  1  0
 28 29  1  0
 29 30  2  0
 30 31  1  0
 31 32  2  0
 26 33  1  0
 33 34  1  0
 34 35  2  0
 35 36  1  0
 36 37  2  0
 37 38  1  0
 38 39  2  0
 39 40  1  0
 40 41  1  0
 41 42  2  0
 42 43  1  0
 43 44  2  0
 44 45  1  0
 44 46  1  0
 46 47  2  0
 47 48  1  0
 39 49  1  0
 49 50  2  0
 49 51  1  0
 51 52  1  0
 51 53  1  0
 53 54  2  0
 16 10  1  0
 32 28  1  0
 54 34  1  0
 53 37  1  0
 47 41  1  0
M  RAD  1  23   2
M  END

