
     RDKit          3D

 52 55  0  0  0  0  0  0  0  0999 V2000
    4.6541    0.2626    1.8958 C   0  0  0  0  0  0  0  0  0  0  0  0
    5.1011   -0.6091    0.7176 C   0  0  0  0  0  0  0  0  0  0  0  0
    5.4262    0.2783   -0.4847 C   0  0  0  0  0  0  0  0  0  0  0  0
    4.0053   -1.5664    0.4175 C   0  0  0  0  0  0  0  0  0  0  0  0
    2.7481   -0.7860    0.0337 C   0  0  0  0  0  0  0  0  0  0  0  0
    2.8389    0.5051   -0.0308 O   0  0  0  0  0  0  0  0  0  0  0  0
    1.5888   -1.2783   -0.2413 N   0  0  0  0  0  0  0  0  0  0  0  0
    0.1923   -1.0349   -0.6292 C   0  0  1  0  0  0  0  0  0  0  0  0
   -0.5729   -1.8358    0.5778 C   0  0  0  0  0  0  0  0  0  0  0  0
   -2.0004   -1.7373    0.3334 C   0  0  0  0  0  0  0  0  0  0  0  0
   -2.7732   -0.7776    0.9382 C   0  0  0  0  0  0  0  0  0  0  0  0
   -4.1251   -0.6776    0.7234 C   0  0  0  0  0  0  0  0  0  0  0  0
   -4.7888   -1.5551   -0.1283 C   0  0  0  0  0  0  0  0  0  0  0  0
   -4.0006   -2.5180   -0.7318 C   0  0  0  0  0  0  0  0  0  0  0  0
   -2.6663   -2.6025   -0.5098 C   0  0  0  0  0  0  0  0  0  0  0  0
   -0.1264    0.4004   -0.0701 C   0  0  0  0  0  0  0  0  0  0  0  0
    0.5095    1.0650    0.6770 O   0  0  0  0  0  0  0  0  0  0  0  0
   -1.3352    0.9674   -0.5367 N   0  0  0  0  0  0  0  0  0  0  0  0
   -1.7249    2.2476   -0.1377 C   0  0  0  0  0  0  0  0  0  0  0  0
   -0.5268    3.2977   -0.6199 C   0  0  1  0  0  0  0  0  0  0  0  0
   -1.1595    3.4603   -2.1239 C   0  0  0  0  0  0  0  0  0  0  0  0
   -1.2642    4.4939   -0.0699 O   0  0  0  0  0  0  0  0  0  0  0  0
   -3.8739   -0.9038    1.6540 C   0  0  0  0  0  0  0  0  0  0  0  0
   -4.4039    0.3502    0.6850 C   0  0  2  0  0  0  0  0  0  0  0  0
   -5.9287   -0.3002    0.5607 C   0  0  0  0  0  0  0  0  0  0  0  0
   -6.5503    0.7180   -0.2926 N   0  0  0  0  0  0  0  0  0  0  0  0
   -7.1747    1.7896    0.1633 N   0  0  0  0  0  0  0  0  0  0  0  0
   -7.6003    2.4690   -0.8950 C   0  0  0  0  0  0  0  0  0  0  0  0
   -7.2390    1.8171   -2.0147 N   0  0  0  0  0  0  0  0  0  0  0  0
   -6.5913    0.7383   -1.6078 N   0  0  0  0  0  0  0  0  0  0  0  0
   -3.9028   -0.3684   -0.6382 N   0  0  0  0  0  0  0  0  0  0  0  0
   -2.5115   -0.6205   -0.6508 C   0  0  0  0  0  0  0  0  0  0  0  0
   -2.0133   -1.2279   -1.7416 N   0  0  0  0  0  0  0  0  0  0  0  0
   -0.6896   -1.5111   -1.8448 C   0  0  0  0  0  0  0  0  0  0  0  0
    0.1388   -1.1513   -0.7813 C   0  0  0  0  0  0  0  0  0  0  0  0
    1.4753   -1.4131   -0.8346 C   0  0  0  0  0  0  0  0  0  0  0  0
    2.2980   -1.0641    0.2040 C   0  0  0  0  0  0  0  0  0  0  0  0
    3.6389   -1.3463    0.1092 O   0  0  0  0  0  0  0  0  0  0  0  0
    4.6413   -0.3916    0.1514 C   0  0  0  0  0  0  0  0  0  0  0  0
    4.4122    0.9448    0.2924 C   0  0  0  0  0  0  0  0  0  0  0  0
    5.4777    1.8387    0.3254 C   0  0  0  0  0  0  0  0  0  0  0  0
    6.7839    1.4055    0.2178 C   0  0  0  0  0  0  0  0  0  0  0  0
    7.8494    2.2403    0.2451 F   0  0  0  0  0  0  0  0  0  0  0  0
    7.0219    0.0626    0.0757 C   0  0  0  0  0  0  0  0  0  0  0  0
    5.9457   -0.8282    0.0435 C   0  0  0  0  0  0  0  0  0  0  0  0
    6.2545   -2.1376   -0.0989 F   0  0  0  0  0  0  0  0  0  0  0  0
    1.7621   -0.4452    1.3048 C   0  0  0  0  0  0  0  0  0  0  0  0
    2.5141   -0.1150    2.2777 O   0  0  0  0  0  0  0  0  0  0  0  0
    0.4407   -0.2003    1.3283 N   0  0  0  0  0  0  0  0  0  0  0  0
   -0.0849    0.4621    2.5243 C   0  0  0  0  0  0  0  0  0  0  0  0
   -0.3885   -0.5294    0.3290 C   0  0  0  0  0  0  0  0  0  0  0  0
   -1.7021   -0.2824    0.3599 N   0  0  0  0  0  0  0  0  0  0  0  0
  1  2  1  0
  2  3  1  0
  2  4  1  0
  4  5  1  0
  5  6  2  0
  5  7  1  0
  7  8  1  0
  8  9  1  1
  9 10  1  0
 10 11  2  0
 11 12  1  0
 12 13  2  0
 13 14  1  0
 14 15  2  0
  8 16  1  0
 16 17  2  0
 16 18  1  0
 18 19  1  0
 19 20  1  0
 20 21  1  6
 20 22  1  0
 24 23  1  1
 24 25  1  0
 25 26  1  0
 26 27  1  0
 27 28  2  0
 28 29  1  0
 29 30  2  0
 24 31  1  0
 31 32  1  0
 32 33  2  0
 33 34  1  0
 34 35  2  0
 35 36  1  0
 36 37  2  0
 37 38  1  0
 38 39  1  0
 39 40  2  0
 40 41  1  0
 41 42  2  0
 42 43  1  0
 42 44  1  0
 44 45  2  0
 45 46  1  0
 37 47  1  0
 47 48  2  0
 47 49  1  0
 49 50  1  0
 49 51  1  0
 51 52  2  0
 15 10  1  0
 30 26  1  0
 52 32  1  0
 51 35  1  0
 45 39  1  0
M  END

