
     RDKit          3D

 57 61  0  0  0  0  0  0  0  0999 V2000
    0.2191   -4.0580    1.8969 C   0  0  0  0  0  0  0  0  0  0  0  0
    0.0682   -3.6271    0.5072 C   0  0  0  0  0  0  0  0  0  0  0  0
    1.2337   -2.6057    0.0661 C   0  0  2  0  0  0  0  0  0  0  0  0
    2.4576   -3.6270    0.3418 C   0  0  0  0  0  0  0  0  0  0  0  0
    1.3663   -1.8587    1.5982 C   0  0  2  0  0  0  0  0  0  0  0  0
   -0.1023   -1.3463    1.6592 N   0  0  0  0  0  0  0  0  0  0  0  0
   -0.7946   -0.9724    0.5376 C   0  0  0  0  0  0  0  0  0  0  0  0
   -0.2419   -1.0402   -0.5904 O   0  0  0  0  0  0  0  0  0  0  0  0
   -2.1972   -0.4910    0.7022 C   0  0  0  0  0  0  0  0  0  0  0  0
   -2.7700   -0.1442   -0.6628 C   0  0  0  0  0  0  0  0  0  0  0  0
   -4.1516    0.3307   -0.4592 C   0  0  0  0  0  0  0  0  0  0  0  0
   -5.2043   -0.5447   -0.4667 C   0  0  0  0  0  0  0  0  0  0  0  0
   -6.5097   -0.1014   -0.2788 C   0  0  0  0  0  0  0  0  0  0  0  0
   -6.7468    1.2616   -0.0789 C   0  0  0  0  0  0  0  0  0  0  0  0
   -8.0671    1.6861    0.1081 O   0  0  0  0  0  0  0  0  0  0  0  0
   -5.6722    2.1183   -0.0759 C   0  0  0  0  0  0  0  0  0  0  0  0
   -4.3837    1.6620   -0.2639 C   0  0  0  0  0  0  0  0  0  0  0  0
    2.0177   -0.5504    1.0219 C   0  0  0  0  0  0  0  0  0  0  0  0
    1.4315    0.4588    0.7580 O   0  0  0  0  0  0  0  0  0  0  0  0
    3.3986   -0.7064    0.8491 N   0  0  0  0  0  0  0  0  0  0  0  0
    4.2349    0.3233    0.3448 C   0  0  0  0  0  0  0  0  0  0  0  0
    3.7924    0.7177   -1.0249 C   0  0  0  0  0  0  0  0  0  0  0  0
    4.6512    1.7929   -1.5684 C   0  0  0  0  0  0  0  0  0  0  0  0
    4.5329    2.4038   -2.8103 C   0  0  0  0  0  0  0  0  0  0  0  0
    5.5345    3.3113   -2.8417 N   0  0  0  0  0  0  0  0  0  0  0  0
    6.2214    3.2683   -1.7100 C   0  0  0  0  0  0  0  0  0  0  0  0
    5.6816    2.3386   -0.9281 N   0  0  0  0  0  0  0  0  0  0  0  0
   -5.9255   -2.0825    1.2778 C   0  0  0  0  0  0  0  0  0  0  0  0
   -4.3203   -1.7679    1.4948 C   0  0  2  0  0  0  0  0  0  0  0  0
   -4.5227   -0.1411    1.5443 C   0  0  0  0  0  0  0  0  0  0  0  0
   -5.0990    0.2876    0.3269 N   0  0  0  0  0  0  0  0  0  0  0  0
   -6.3278    0.4479   -0.0984 N   0  0  0  0  0  0  0  0  0  0  0  0
   -6.3250    0.8892   -1.3690 C   0  0  0  0  0  0  0  0  0  0  0  0
   -5.0323    0.9987   -1.7222 N   0  0  0  0  0  0  0  0  0  0  0  0
   -4.3269    0.6340   -0.6931 N   0  0  0  0  0  0  0  0  0  0  0  0
   -3.9825   -1.8242   -0.0426 N   0  0  0  0  0  0  0  0  0  0  0  0
   -2.6016   -1.5899   -0.3235 C   0  0  0  0  0  0  0  0  0  0  0  0
   -2.2628   -1.6275   -1.6229 N   0  0  0  0  0  0  0  0  0  0  0  0
   -0.9941   -1.4222   -2.0098 C   0  0  0  0  0  0  0  0  0  0  0  0
   -0.0174   -1.1694   -1.0818 C   0  0  0  0  0  0  0  0  0  0  0  0
    1.2954   -0.9553   -1.4597 C   0  0  0  0  0  0  0  0  0  0  0  0
    2.2579   -0.7036   -0.5111 C   0  0  0  0  0  0  0  0  0  0  0  0
    3.5715   -0.4875   -0.8663 O   0  0  0  0  0  0  0  0  0  0  0  0
    4.1837    0.7251   -0.5383 C   0  0  0  0  0  0  0  0  0  0  0  0
    3.5367    1.7194    0.1252 C   0  0  0  0  0  0  0  0  0  0  0  0
    4.1463    2.9149    0.4466 C   0  0  0  0  0  0  0  0  0  0  0  0
    5.4672    3.1320    0.0894 C   0  0  0  0  0  0  0  0  0  0  0  0
    6.0805    4.3132    0.4031 F   0  0  0  0  0  0  0  0  0  0  0  0
    6.1129    2.1189   -0.5820 C   0  0  0  0  0  0  0  0  0  0  0  0
    5.5025    0.9244   -0.9026 C   0  0  0  0  0  0  0  0  0  0  0  0
    6.2209   -0.0048   -1.5617 F   0  0  0  0  0  0  0  0  0  0  0  0
    1.8695   -0.6738    0.8049 C   0  0  0  0  0  0  0  0  0  0  0  0
    2.7563   -0.4430    1.6636 O   0  0  0  0  0  0  0  0  0  0  0  0
    0.5696   -0.8880    1.1521 N   0  0  0  0  0  0  0  0  0  0  0  0
    0.2308   -0.8420    2.5584 C   0  0  0  0  0  0  0  0  0  0  0  0
   -0.3844   -1.1347    0.2481 C   0  0  0  0  0  0  0  0  0  0  0  0
   -1.6795   -1.3479    0.5956 N   0  0  0  0  0  0  0  0  0  0  0  0
  1  2  1  0
  2  3  1  0
  3  4  1  1
  3  5  1  0
  5  6  1  6
  6  7  1  0
  7  8  2  0
  7  9  1  0
  9 10  1  0
 10 11  1  0
 11 12  2  0
 12 13  1  0
 13 14  2  0
 14 15  1  0
 14 16  1  0
 16 17  2  0
  5 18  1  0
 18 19  2  0
 18 20  1  0
 20 21  1  0
 21 22  1  0
 22 23  1  0
 23 24  2  0
 24 25  1  0
 25 26  1  0
 26 27  2  0
 29 28  1  6
 29 30  1  0
 30 31  1  0
 31 32  1  0
 32 33  2  0
 33 34  1  0
 34 35  2  0
 29 36  1  0
 36 37  1  0
 37 38  2  0
 38 39  1  0
 39 40  2  0
 40 41  1  0
 41 42  2  0
 42 43  1  0
 43 44  1  0
 44 45  2  0
 45 46  1  0
 46 47  2  0
 47 48  1  0
 47 49  1  0
 49 50  2  0
 50 51  1  0
 42 52  1  0
 52 53  2  0
 52 54  1  0
 54 55  1  0
 54 56  1  0
 56 57  2  0
 17 11  1  0
 27 23  1  0
 35 31  1  0
 57 37  1  0
 56 40  1  0
 50 44  1  0
M  END

