
     RDKit          3D

 50 52  0  0  0  0  0  0  0  0999 V2000
   -3.3928   -1.8717   -0.5517 C   0  0  0  0  0  0  0  0  0  0  0  0
   -3.1578   -2.8864    0.7446 C   0  0  1  0  0  0  0  0  0  0  0  0
   -3.6182   -4.1121   -0.1335 O   0  0  0  0  0  0  0  0  0  0  0  0
   -1.5618   -3.1719    0.4671 C   0  0  0  0  0  0  0  0  0  0  0  0
   -0.8134   -2.2062    1.1822 N   0  0  0  0  0  0  0  0  0  0  0  0
   -0.8184   -0.8638    0.9372 C   0  0  0  0  0  0  0  0  0  0  0  0
   -1.4754   -0.3468    0.0198 O   0  0  0  0  0  0  0  0  0  0  0  0
    0.0561    0.1497    1.8369 C   0  0  2  0  0  0  0  0  0  0  0  0
   -0.0669    1.4278    0.7700 C   0  0  0  0  0  0  0  0  0  0  0  0
   -1.5237    1.6630    0.6401 C   0  0  0  0  0  0  0  0  0  0  0  0
   -1.6685    2.7980   -0.3326 C   0  0  0  0  0  0  0  0  0  0  0  0
   -1.0855    4.0650    0.3187 C   0  0  0  0  0  0  0  0  0  0  0  0
   -1.9421    4.2970    1.5181 N   0  0  0  0  0  4  0  0  0  0  0  0
    1.4083   -0.3340    1.3114 N   0  0  0  0  0  0  0  0  0  0  0  0
    2.1836    0.3689    0.3961 C   0  0  0  0  0  0  0  0  0  0  0  0
    1.8684    1.4535   -0.0957 O   0  0  0  0  0  0  0  0  0  0  0  0
    3.5157   -0.2516   -0.0374 C   0  0  0  0  0  0  0  0  0  0  0  0
    3.8162    0.5633   -1.4436 C   0  0  1  0  0  0  0  0  0  0  0  0
    5.2603   -0.2827   -1.7108 C   0  0  0  0  0  0  0  0  0  0  0  0
    3.0157   -0.4589   -2.2670 O   0  0  0  0  0  0  0  0  0  0  0  0
    5.8257    0.3089    1.7348 C   0  0  0  0  0  0  0  0  0  0  0  0
    4.3704   -0.3413    1.3075 C   0  0  2  0  0  0  0  0  0  0  0  0
    4.4362    0.2702   -0.2125 C   0  0  0  0  0  0  0  0  0  0  0  0
    5.6240   -0.2925   -0.8100 N   0  0  0  0  0  0  0  0  0  0  0  0
    6.7989    0.3194   -0.7146 N   0  0  0  0  0  0  0  0  0  0  0  0
    7.7544   -0.3860   -1.3438 C   0  0  0  0  0  0  0  0  0  0  0  0
    7.1035   -1.4627   -1.8301 N   0  0  0  0  0  0  0  0  0  0  0  0
    5.8181   -1.3838   -1.4948 N   0  0  0  0  0  0  0  0  0  0  0  0
    3.5777    0.8727    1.8788 N   0  0  0  0  0  0  0  0  0  0  0  0
    2.1690    0.8149    1.7583 C   0  0  0  0  0  0  0  0  0  0  0  0
    1.4932    1.8665    2.2540 N   0  0  0  0  0  0  0  0  0  0  0  0
    0.1676    1.9813    2.2274 C   0  0  0  0  0  0  0  0  0  0  0  0
   -0.5370    0.9334    1.6446 C   0  0  0  0  0  0  0  0  0  0  0  0
   -1.9135    0.9551    1.5668 C   0  0  0  0  0  0  0  0  0  0  0  0
   -2.6092   -0.0933    0.9843 C   0  0  0  0  0  0  0  0  0  0  0  0
   -3.9888    0.0031    0.9447 O   0  0  0  0  0  0  0  0  0  0  0  0
   -4.6929   -0.0038   -0.2576 C   0  0  0  0  0  0  0  0  0  0  0  0
   -5.6155   -1.0114   -0.4476 C   0  0  0  0  0  0  0  0  0  0  0  0
   -6.3457   -1.0812   -1.6075 C   0  0  0  0  0  0  0  0  0  0  0  0
   -6.1592   -0.1461   -2.5839 C   0  0  0  0  0  0  0  0  0  0  0  0
   -6.9102   -0.2500   -3.7325 F   0  0  0  0  0  0  0  0  0  0  0  0
   -5.2443    0.8444   -2.3836 C   0  0  0  0  0  0  0  0  0  0  0  0
   -4.4828    0.9639   -1.2386 C   0  0  0  0  0  0  0  0  0  0  0  0
   -3.5781    1.9450   -1.0429 F   0  0  0  0  0  0  0  0  0  0  0  0
   -1.8955   -1.1507    0.4881 C   0  0  0  0  0  0  0  0  0  0  0  0
   -2.5086   -2.1113   -0.0441 O   0  0  0  0  0  0  0  0  0  0  0  0
   -0.5524   -1.1636    0.5681 N   0  0  0  0  0  0  0  0  0  0  0  0
    0.2368   -2.2750    0.0491 C   0  0  0  0  0  0  0  0  0  0  0  0
    0.1566   -0.1448    1.1364 C   0  0  0  0  0  0  0  0  0  0  0  0
    1.5016   -0.1876    1.2012 N   0  0  0  0  0  0  0  0  0  0  0  0
  2  1  1  6
  2  3  1  0
  2  4  1  0
  4  5  1  0
  5  6  1  0
  6  7  2  0
  6  8  1  0
  8  9  1  6
  9 10  1  0
 10 11  1  0
 11 12  1  0
 12 13  1  0
  8 14  1  0
 14 15  1  0
 15 16  2  0
 15 17  1  0
 17 18  1  0
 18 19  1  6
 18 20  1  0
 22 21  1  1
 22 23  1  0
 23 24  1  0
 24 25  1  0
 25 26  2  0
 26 27  1  0
 27 28  2  0
 22 29  1  0
 29 30  1  0
 30 31  2  0
 31 32  1  0
 32 33  2  0
 33 34  1  0
 34 35  2  0
 35 36  1  0
 36 37  1  0
 37 38  2  0
 38 39  1  0
 39 40  2  0
 40 41  1  0
 40 42  1  0
 42 43  2  0
 43 44  1  0
 35 45  1  0
 45 46  2  0
 45 47  1  0
 47 48  1  0
 47 49  1  0
 49 50  2  0
 28 24  1  0
 50 30  1  0
 49 33  1  0
 43 37  1  0
M  CHG  1  13   1
M  END

