
     RDKit          3D

 50 52  0  0  0  0  0  0  0  0999 V2000
    1.4131    3.5789   -1.4670 C   0  0  0  0  0  0  0  0  0  0  0  0
    1.1299    2.1232   -1.0416 C   0  0  0  0  0  0  0  0  0  0  0  0
   -0.3589    2.3111   -0.3871 C   0  0  2  0  0  0  0  0  0  0  0  0
    0.1895    3.4200    0.7035 C   0  0  0  0  0  0  0  0  0  0  0  0
   -0.1622    1.0881    0.7171 C   0  0  2  0  0  0  0  0  0  0  0  0
    0.0370   -0.0203   -0.3471 N   0  0  0  0  0  0  0  0  0  0  0  0
    0.1848   -1.3157    0.1478 C   0  0  0  0  0  0  0  0  0  0  0  0
    0.1729   -1.5158    1.3822 O   0  0  0  0  0  0  0  0  0  0  0  0
    0.3752   -2.4839   -0.8249 C   0  0  0  0  0  0  0  0  0  0  0  0
    1.5222   -3.3523   -0.2175 C   0  0  0  0  0  0  0  0  0  0  0  0
    2.7274   -2.3899   -0.1462 C   0  0  0  0  0  0  0  0  0  0  0  0
    3.9259   -3.1100    0.3731 C   0  0  0  0  0  0  0  0  0  0  0  0
    5.1149   -2.0994    0.3855 C   0  0  0  0  0  0  0  0  0  0  0  0
    5.1710   -1.6683   -1.0401 N   0  0  0  0  0  4  0  0  0  0  0  0
   -1.7194    0.8069    0.8906 C   0  0  0  0  0  0  0  0  0  0  0  0
   -2.0327    0.1347    1.9139 O   0  0  0  0  0  0  0  0  0  0  0  0
   -2.6911    1.2405   -0.0290 N   0  0  0  0  0  0  0  0  0  0  0  0
   -4.0899    0.8395    0.1983 C   0  0  0  0  0  0  0  0  0  0  0  0
   -4.7747    1.4207   -1.0893 C   0  0  0  0  0  0  0  0  0  0  0  0
   -6.1350    0.9920   -0.8641 O   0  0  0  0  0  0  0  0  0  0  0  0
    6.1105    1.0300    1.4029 C   0  0  0  0  0  0  0  0  0  0  0  0
    4.9654   -0.0936    0.9673 C   0  0  2  0  0  0  0  0  0  0  0  0
    4.9452    0.3361   -0.6505 C   0  0  0  0  0  0  0  0  0  0  0  0
    6.2553    0.1352   -1.1402 N   0  0  0  0  0  0  0  0  0  0  0  0
    7.1524    1.1193   -1.0906 N   0  0  0  0  0  0  0  0  0  0  0  0
    8.3126    0.7421   -1.5927 C   0  0  0  0  0  0  0  0  0  0  0  0
    8.1463   -0.5485   -1.9822 N   0  0  0  0  0  0  0  0  0  0  0  0
    6.8941   -0.8676   -1.6895 N   0  0  0  0  0  0  0  0  0  0  0  0
    3.7700    0.8887    1.3215 N   0  0  0  0  0  0  0  0  0  0  0  0
    2.4825    0.3315    1.0968 C   0  0  0  0  0  0  0  0  0  0  0  0
    2.2827   -0.8969    0.6333 N   0  0  0  0  0  0  0  0  0  0  0  0
    1.0614   -1.4031    0.4285 C   0  0  0  0  0  0  0  0  0  0  0  0
   -0.0861   -0.6444    0.6994 C   0  0  0  0  0  0  0  0  0  0  0  0
   -1.3321   -1.1478    0.4942 C   0  0  0  0  0  0  0  0  0  0  0  0
   -2.4884   -0.3454    0.7802 C   0  0  0  0  0  0  0  0  0  0  0  0
   -3.6837   -0.9137    0.5517 O   0  0  0  0  0  0  0  0  0  0  0  0
   -4.7884   -0.8651   -0.1486 C   0  0  0  0  0  0  0  0  0  0  0  0
   -5.0048   -1.9842   -1.0105 C   0  0  0  0  0  0  0  0  0  0  0  0
   -6.0794   -2.1238   -1.8097 C   0  0  0  0  0  0  0  0  0  0  0  0
   -7.0363   -1.1333   -1.8051 C   0  0  0  0  0  0  0  0  0  0  0  0
   -8.1225   -1.2643   -2.6077 F   0  0  0  0  0  0  0  0  0  0  0  0
   -6.8551   -0.0492   -0.9882 C   0  0  0  0  0  0  0  0  0  0  0  0
   -5.7403    0.1038   -0.1531 C   0  0  0  0  0  0  0  0  0  0  0  0
   -5.7079    1.2312    0.6307 F   0  0  0  0  0  0  0  0  0  0  0  0
   -2.1987    0.9005    1.2529 C   0  0  0  0  0  0  0  0  0  0  0  0
   -3.1480    1.6800    1.5375 O   0  0  0  0  0  0  0  0  0  0  0  0
   -0.9206    1.3670    1.4442 N   0  0  0  0  0  0  0  0  0  0  0  0
   -0.7397    2.7101    1.9512 C   0  0  0  0  0  0  0  0  0  0  0  0
    0.1522    0.6245    1.1786 C   0  0  0  0  0  0  0  0  0  0  0  0
    1.4017    1.0811    1.3650 N   0  0  0  0  0  0  0  0  0  0  0  0
  1  2  1  0
  2  3  1  0
  3  4  1  1
  3  5  1  0
  5  6  1  6
  6  7  1  0
  7  8  2  0
  7  9  1  0
  9 10  1  0
 10 11  1  0
 11 12  1  0
 12 13  1  0
 13 14  1  0
  5 15  1  0
 15 16  2  0
 15 17  1  0
 17 18  1  0
 18 19  1  0
 19 20  1  0
 22 21  1  1
 22 23  1  0
 23 24  1  0
 24 25  1  0
 25 26  2  0
 26 27  1  0
 27 28  2  0
 22 29  1  0
 29 30  1  0
 30 31  2  0
 31 32  1  0
 32 33  2  0
 33 34  1  0
 34 35  2  0
 35 36  1  0
 36 37  1  0
 37 38  2  0
 38 39  1  0
 39 40  2  0
 40 41  1  0
 40 42  1  0
 42 43  2  0
 43 44  1  0
 35 45  1  0
 45 46  2  0
 45 47  1  0
 47 48  1  0
 47 49  1  0
 49 50  2  0
 28 24  1  0
 50 30  1  0
 49 33  1  0
 43 37  1  0
M  CHG  1  14   1
M  END

