
     RDKit          3D

 49 51  0  0  0  0  0  0  0  0999 V2000
   -4.4407    0.3592    3.7158 C   0  0  0  0  0  0  0  0  0  0  0  0
   -3.5240    0.8351    2.6519 C   0  0  0  0  0  0  0  0  0  0  0  0
   -2.8834   -0.2891    1.8765 C   0  0  0  0  0  0  0  0  0  0  0  0
   -3.2089   -1.4699    2.0072 O   0  0  0  0  0  0  0  0  0  0  0  0
   -1.8448    0.0701    0.9466 N   0  0  0  0  0  0  0  0  0  0  0  0
   -1.3251   -1.3371    0.2718 C   0  0  1  0  0  0  0  0  0  0  0  0
   -1.8997   -1.0232   -1.1574 C   0  0  0  0  0  0  0  0  0  0  0  0
   -1.6504   -0.0291   -1.9843 C   0  0  0  0  0  0  0  0  0  0  0  0
   -0.7865    0.6541   -2.8289 C   0  0  0  0  0  0  0  0  0  0  0  0
   -0.6265    1.9909   -2.9728 O   0  0  0  0  0  1  0  0  0  0  0  0
    0.0162   -0.0970   -3.5967 O   0  0  0  0  0  0  0  0  0  0  0  0
    0.1518   -0.9309    0.2257 C   0  0  0  0  0  0  0  0  0  0  0  0
    0.5948   -0.6956   -0.9215 O   0  0  0  0  0  0  0  0  0  0  0  0
    1.0337   -0.7668    1.2828 N   0  0  0  0  0  0  0  0  0  0  0  0
    2.4130   -0.3307    1.0530 C   0  0  0  0  0  0  0  0  0  0  0  0
    3.1180   -1.2378    0.0564 C   0  0  0  0  0  0  0  0  0  0  0  0
    4.4723   -0.7152   -0.2039 C   0  0  0  0  0  0  0  0  0  0  0  0
    5.3203   -1.4588   -1.1374 C   0  0  0  0  0  0  0  0  0  0  0  0
    5.0698    0.2644    0.7151 C   0  0  0  0  0  0  0  0  0  0  0  0
    3.8557   -0.3705    1.5999 C   0  0  0  0  0  0  0  0  0  0  0  0
    4.0121    1.2722    1.6884 C   0  0  1  0  0  0  0  0  0  0  0  0
    5.6494    1.2272    1.6165 C   0  0  0  0  0  0  0  0  0  0  0  0
    5.9183    0.5748    0.3656 N   0  0  0  0  0  0  0  0  0  0  0  0
    6.0693    1.1563   -0.8045 N   0  0  0  0  0  0  0  0  0  0  0  0
    6.3091    0.2395   -1.7552 C   0  0  0  0  0  0  0  0  0  0  0  0
    6.3059   -0.9578   -1.1456 N   0  0  0  0  0  0  0  0  0  0  0  0
    6.0680   -0.7349    0.1361 N   0  0  0  0  0  0  0  0  0  0  0  0
    3.7926    1.4952    0.1525 N   0  0  0  0  0  0  0  0  0  0  0  0
    2.5365    1.0251   -0.2847 C   0  0  0  0  0  0  0  0  0  0  0  0
    2.2193    1.1549   -1.5833 N   0  0  0  0  0  0  0  0  0  0  0  0
    1.0306    0.7250   -2.0685 C   0  0  0  0  0  0  0  0  0  0  0  0
    0.1173    0.1392   -1.2189 C   0  0  0  0  0  0  0  0  0  0  0  0
   -1.1110   -0.3213   -1.6425 C   0  0  0  0  0  0  0  0  0  0  0  0
   -1.9746   -0.8926   -0.7561 C   0  0  0  0  0  0  0  0  0  0  0  0
   -3.2245   -1.3733   -1.1290 O   0  0  0  0  0  0  0  0  0  0  0  0
   -4.3892   -0.8806   -0.5840 C   0  0  0  0  0  0  0  0  0  0  0  0
   -5.1981   -1.7724    0.0898 C   0  0  0  0  0  0  0  0  0  0  0  0
   -6.4036   -1.3744    0.6806 C   0  0  0  0  0  0  0  0  0  0  0  0
   -6.7365   -0.0479    0.5526 C   0  0  0  0  0  0  0  0  0  0  0  0
   -7.8822    0.4029    1.0968 F   0  0  0  0  0  0  0  0  0  0  0  0
   -5.9374    0.8478   -0.1165 C   0  0  0  0  0  0  0  0  0  0  0  0
   -4.7327    0.4498   -0.7069 C   0  0  0  0  0  0  0  0  0  0  0  0
   -3.9398    1.3260   -1.3678 F   0  0  0  0  0  0  0  0  0  0  0  0
   -1.5844   -0.9938    0.5622 C   0  0  0  0  0  0  0  0  0  0  0  0
   -2.3956   -1.5299    1.3920 O   0  0  0  0  0  0  0  0  0  0  0  0
   -0.3950   -0.5520    0.9918 N   0  0  0  0  0  0  0  0  0  0  0  0
   -0.0541   -0.6951    2.4054 C   0  0  0  0  0  0  0  0  0  0  0  0
    0.4384    0.0055    0.1072 C   0  0  0  0  0  0  0  0  0  0  0  0
    1.6360    0.4551    0.5169 N   0  0  0  0  0  0  0  0  0  0  0  0
  1  2  1  0
  2  3  1  0
  3  4  2  0
  3  5  1  0
  5  6  1  0
  6  7  1  6
  7  8  1  0
  8  9  1  0
  9 10  1  0
  9 11  2  0
  6 12  1  0
 12 13  2  0
 12 14  1  0
 14 15  1  0
 15 16  1  0
 16 17  1  0
 17 18  1  0
 17 19  1  0
 21 20  1  1
 21 22  1  0
 22 23  1  0
 23 24  1  0
 24 25  2  0
 25 26  1  0
 26 27  2  0
 21 28  1  0
 28 29  1  0
 29 30  2  0
 30 31  1  0
 31 32  2  0
 32 33  1  0
 33 34  2  0
 34 35  1  0
 35 36  1  0
 36 37  2  0
 37 38  1  0
 38 39  2  0
 39 40  1  0
 39 41  1  0
 41 42  2  0
 42 43  1  0
 34 44  1  0
 44 45  2  0
 44 46  1  0
 46 47  1  0
 46 48  1  0
 48 49  2  0
 27 23  1  0
 49 29  1  0
 48 32  1  0
 42 36  1  0
M  RAD  1  10   2
M  END

