
     RDKit          3D

 54 57  0  0  0  0  0  0  0  0999 V2000
   -5.0008   -1.2016   -1.9596 C   0  0  0  0  0  0  0  0  0  0  0  0
   -6.0008   -0.5166   -1.1728 C   0  0  0  0  0  0  0  0  0  0  0  0
   -7.4319   -0.9431   -1.4026 C   0  0  0  0  0  0  0  0  0  0  0  0
   -5.8442   -0.1167    0.1993 C   0  0  0  0  0  0  0  0  0  0  0  0
   -4.7560    0.8043    0.4354 C   0  0  0  0  0  0  0  0  0  0  0  0
   -3.4618    0.1964    0.1750 C   0  0  0  0  0  0  0  0  0  0  0  0
   -3.4848   -1.0170    0.0816 O   0  0  0  0  0  0  0  0  0  0  0  0
   -2.2389    0.8456    0.0272 N   0  0  0  0  0  0  0  0  0  0  0  0
   -0.9891   -0.0152   -0.2453 C   0  0  2  0  0  0  0  0  0  0  0  0
   -0.2017    0.1688    1.0598 C   0  0  0  0  0  0  0  0  0  0  0  0
   -0.6058    0.8396    1.9871 O   0  0  0  0  0  0  0  0  0  0  0  0
    1.0391   -0.4311    1.2603 N   0  0  0  0  0  0  0  0  0  0  0  0
    1.8187   -0.2811    2.4860 C   0  0  0  0  0  0  0  0  0  0  0  0
    3.0802   -1.0310    2.4015 C   0  0  0  0  0  0  0  0  0  0  0  0
    3.9124   -0.5454    1.2767 C   0  0  0  0  0  0  0  0  0  0  0  0
    3.8526   -1.0438    0.0111 C   0  0  0  0  0  0  0  0  0  0  0  0
    4.6755   -0.5350   -1.0044 C   0  0  0  0  0  0  0  0  0  0  0  0
    5.5737    0.4819   -0.7697 C   0  0  0  0  0  0  0  0  0  0  0  0
    6.4009    1.0035   -1.7554 O   0  0  0  0  0  0  0  0  0  0  0  0
    5.6282    0.9852    0.5264 C   0  0  0  0  0  0  0  0  0  0  0  0
    4.8096    0.4818    1.5407 C   0  0  0  0  0  0  0  0  0  0  0  0
   -0.2124    1.2719   -1.0715 C   0  0  1  0  0  0  0  0  0  0  0  0
    0.7159    0.2488   -1.9621 C   0  0  0  0  0  0  0  0  0  0  0  0
   -1.2785    1.3705   -2.1244 O   0  0  0  0  0  0  0  0  0  0  0  0
    6.1425   -1.4962   -0.2499 C   0  0  0  0  0  0  0  0  0  0  0  0
    5.0251   -0.2824   -0.4528 C   0  0  2  0  0  0  0  0  0  0  0  0
    4.8240    0.0113    1.1835 C   0  0  0  0  0  0  0  0  0  0  0  0
    6.0736    0.3871    1.7027 N   0  0  0  0  0  0  0  0  0  0  0  0
    6.6665    1.5570    1.8404 N   0  0  0  0  0  0  0  0  0  0  0  0
    7.8736    1.4101    2.3978 C   0  0  0  0  0  0  0  0  0  0  0  0
    8.0294    0.0992    2.6112 N   0  0  0  0  0  0  0  0  0  0  0  0
    6.9361   -0.4948    2.1860 N   0  0  0  0  0  0  0  0  0  0  0  0
    3.8149   -1.3106   -0.4747 N   0  0  0  0  0  0  0  0  0  0  0  0
    2.5541   -0.6694   -0.6421 C   0  0  0  0  0  0  0  0  0  0  0  0
    2.3806    0.6472   -0.7689 N   0  0  0  0  0  0  0  0  0  0  0  0
    1.1412    1.1470   -0.9224 C   0  0  0  0  0  0  0  0  0  0  0  0
    0.0055    0.3295   -0.9554 C   0  0  0  0  0  0  0  0  0  0  0  0
   -1.2404    0.8383   -1.1097 C   0  0  0  0  0  0  0  0  0  0  0  0
   -2.3900   -0.0285   -1.1395 C   0  0  0  0  0  0  0  0  0  0  0  0
   -3.5793    0.5683   -1.2985 O   0  0  0  0  0  0  0  0  0  0  0  0
   -4.7271    0.7704   -0.6489 C   0  0  0  0  0  0  0  0  0  0  0  0
   -4.9849    2.1334   -0.3294 C   0  0  0  0  0  0  0  0  0  0  0  0
   -6.1181    2.4820    0.3299 C   0  0  0  0  0  0  0  0  0  0  0  0
   -7.0809    1.5900    0.7332 C   0  0  0  0  0  0  0  0  0  0  0  0
   -8.1978    1.9827    1.3911 F   0  0  0  0  0  0  0  0  0  0  0  0
   -6.8471    0.2674    0.4311 C   0  0  0  0  0  0  0  0  0  0  0  0
   -5.6920   -0.1074   -0.2441 C   0  0  0  0  0  0  0  0  0  0  0  0
   -5.6335   -1.4406   -0.4926 F   0  0  0  0  0  0  0  0  0  0  0  0
   -2.0939   -1.3440   -1.0032 C   0  0  0  0  0  0  0  0  0  0  0  0
   -3.0657   -2.1819   -1.0250 O   0  0  0  0  0  0  0  0  0  0  0  0
   -0.8394   -1.8612   -0.8467 N   0  0  0  0  0  0  0  0  0  0  0  0
   -0.6660   -3.2881   -0.7110 C   0  0  0  0  0  0  0  0  0  0  0  0
    0.2074   -1.0340   -0.8221 C   0  0  0  0  0  0  0  0  0  0  0  0
    1.4816   -1.4763   -0.6702 N   0  0  0  0  0  0  0  0  0  0  0  0
  1  2  1  0
  2  3  1  0
  2  4  1  0
  4  5  1  0
  5  6  1  0
  6  7  2  0
  6  8  1  0
  9  8  1  1
  9 10  1  0
 10 11  2  0
 10 12  1  0
 12 13  1  0
 13 14  1  0
 14 15  1  0
 15 16  2  0
 16 17  1  0
 17 18  2  0
 18 19  1  0
 18 20  1  0
 20 21  2  0
  9 22  1  0
 22 23  1  6
 22 24  1  0
 26 25  1  1
 26 27  1  0
 27 28  1  0
 28 29  1  0
 29 30  2  0
 30 31  1  0
 31 32  2  0
 26 33  1  0
 33 34  1  0
 34 35  2  0
 35 36  1  0
 36 37  2  0
 37 38  1  0
 38 39  2  0
 39 40  1  0
 40 41  1  0
 41 42  2  0
 42 43  1  0
 43 44  2  0
 44 45  1  0
 44 46  1  0
 46 47  2  0
 47 48  1  0
 39 49  1  0
 49 50  2  0
 49 51  1  0
 51 52  1  0
 51 53  1  0
 53 54  2  0
 21 15  1  0
 32 28  1  0
 54 34  1  0
 53 37  1  0
 47 41  1  0
M  END

