
     RDKit          3D

 53 55  0  0  0  0  0  0  0  0999 V2000
   -5.4370    1.8850    1.4684 C   0  0  0  0  0  0  0  0  0  0  0  0
   -5.4752    2.5238    0.1281 C   0  0  0  0  0  0  0  0  0  0  0  0
   -6.8509    3.0110   -0.2656 C   0  0  0  0  0  0  0  0  0  0  0  0
   -4.8730    1.8174   -1.0053 C   0  0  0  0  0  0  0  0  0  0  0  0
   -3.4790    1.4991   -0.9825 C   0  0  0  0  0  0  0  0  0  0  0  0
   -2.8963    0.6132    0.0244 C   0  0  0  0  0  0  0  0  0  0  0  0
   -3.5949    0.0499    0.8807 O   0  0  0  0  0  0  0  0  0  0  0  0
   -1.4695    0.4238   -0.0303 N   0  0  0  0  0  0  0  0  0  0  0  0
   -0.8649   -0.5174    1.0271 C   0  0  1  0  0  0  0  0  0  0  0  0
   -0.5389   -1.7406    0.0135 C   0  0  0  0  0  0  0  0  0  0  0  0
    0.3944   -1.2943   -1.0302 C   0  0  0  0  0  0  0  0  0  0  0  0
    0.6698   -2.4937   -1.9325 C   0  0  0  0  0  0  0  0  0  0  0  0
    1.2906   -3.6286   -1.1024 C   0  0  0  0  0  0  0  0  0  0  0  0
    0.2885   -3.9469   -0.0733 N   0  0  0  0  0  4  0  0  0  0  0  0
    0.5772    0.1258    1.0386 C   0  0  0  0  0  0  0  0  0  0  0  0
    0.6665    1.3134    0.5710 O   0  0  0  0  0  0  0  0  0  0  0  0
    1.7236   -0.4609    1.4902 N   0  0  0  0  0  0  0  0  0  0  0  0
    2.9953    0.2371    1.4447 C   0  0  0  0  0  0  0  0  0  0  0  0
    3.2967    0.6261    0.0105 C   0  0  0  0  0  0  0  0  0  0  0  0
    4.5814    1.3478   -0.1249 C   0  0  0  0  0  0  0  0  0  0  0  0
    5.8087    0.6087    0.2891 C   0  0  0  0  0  0  0  0  0  0  0  0
    5.9926   -0.6538   -0.5378 C   0  0  0  0  0  0  0  0  0  0  0  0
    7.1945   -1.3459   -0.1271 N   0  0  0  0  0  4  0  0  0  0  0  0
    5.9768    0.5933   -0.8491 C   0  0  0  0  0  0  0  0  0  0  0  0
    4.4007    0.9233   -0.5678 C   0  0  2  0  0  0  0  0  0  0  0  0
    4.3478   -0.0033    0.7801 C   0  0  0  0  0  0  0  0  0  0  0  0
    5.3227    0.5604    1.6845 N   0  0  0  0  0  0  0  0  0  0  0  0
    5.1971    1.4919    2.6028 N   0  0  0  0  0  0  0  0  0  0  0  0
    6.3932    1.6740    3.1873 C   0  0  0  0  0  0  0  0  0  0  0  0
    7.2421    0.8207    2.5894 N   0  0  0  0  0  0  0  0  0  0  0  0
    6.5747    0.1716    1.6990 N   0  0  0  0  0  0  0  0  0  0  0  0
    3.8989   -0.2193   -1.4993 N   0  0  0  0  0  0  0  0  0  0  0  0
    2.5177   -0.3808   -1.6216 C   0  0  0  0  0  0  0  0  0  0  0  0
    2.0910   -1.3617   -2.4213 N   0  0  0  0  0  0  0  0  0  0  0  0
    0.7565   -1.5656   -2.5787 C   0  0  0  0  0  0  0  0  0  0  0  0
   -0.1841   -0.7886   -1.9362 C   0  0  0  0  0  0  0  0  0  0  0  0
   -1.5453   -0.9886   -2.0902 C   0  0  0  0  0  0  0  0  0  0  0  0
   -2.4141   -0.1696   -1.4137 C   0  0  0  0  0  0  0  0  0  0  0  0
   -3.8016   -0.3306   -1.5357 O   0  0  0  0  0  0  0  0  0  0  0  0
   -4.5983   -0.6110   -0.4289 C   0  0  0  0  0  0  0  0  0  0  0  0
   -5.5850    0.3143   -0.1442 C   0  0  0  0  0  0  0  0  0  0  0  0
   -6.4450    0.1466    0.9353 C   0  0  0  0  0  0  0  0  0  0  0  0
   -6.2989   -0.9747    1.7333 C   0  0  0  0  0  0  0  0  0  0  0  0
   -7.1042   -1.2103    2.8112 F   0  0  0  0  0  0  0  0  0  0  0  0
   -5.3015   -1.9006    1.4374 C   0  0  0  0  0  0  0  0  0  0  0  0
   -4.4521   -1.7193    0.3578 C   0  0  0  0  0  0  0  0  0  0  0  0
   -3.4797   -2.6173    0.0654 F   0  0  0  0  0  0  0  0  0  0  0  0
   -1.9315    0.8377   -0.5929 C   0  0  0  0  0  0  0  0  0  0  0  0
   -2.7639    1.5578    0.0024 O   0  0  0  0  0  0  0  0  0  0  0  0
   -0.6006    0.9944   -0.4741 N   0  0  0  0  0  0  0  0  0  0  0  0
   -0.1114    2.0437    0.3812 C   0  0  0  0  0  0  0  0  0  0  0  0
    0.2909    0.2197   -1.1144 C   0  0  0  0  0  0  0  0  0  0  0  0
    1.6071    0.3718   -0.9993 N   0  0  0  0  0  0  0  0  0  0  0  0
  1  2  1  0
  2  3  1  0
  2  4  1  0
  4  5  1  0
  5  6  1  0
  6  7  2  0
  6  8  1  0
  8  9  1  0
  9 10  1  6
 10 11  1  0
 11 12  1  0
 12 13  1  0
 13 14  1  0
  9 15  1  0
 15 16  2  0
 15 17  1  0
 17 18  1  0
 18 19  1  0
 19 20  1  0
 20 21  1  0
 21 22  1  0
 22 23  1  0
 25 24  1  6
 25 26  1  0
 26 27  1  0
 27 28  1  0
 28 29  2  0
 29 30  1  0
 30 31  2  0
 25 32  1  0
 32 33  1  0
 33 34  2  0
 34 35  1  0
 35 36  2  0
 36 37  1  0
 37 38  2  0
 38 39  1  0
 39 40  1  0
 40 41  2  0
 41 42  1  0
 42 43  2  0
 43 44  1  0
 43 45  1  0
 45 46  2  0
 46 47  1  0
 38 48  1  0
 48 49  2  0
 48 50  1  0
 50 51  1  0
 50 52  1  0
 52 53  2  0
 31 27  1  0
 53 33  1  0
 52 36  1  0
 46 40  1  0
M  CHG  2  14   1  23   1
M  END

