
     RDKit          3D

 51 53  0  0  0  0  0  0  0  0999 V2000
    4.9770    1.6282   -0.9410 C   0  0  0  0  0  0  0  0  0  0  0  0
    4.7641    0.1978   -0.4857 C   0  0  0  0  0  0  0  0  0  0  0  0
    4.7417    0.3285    1.1460 C   0  0  2  0  0  0  0  0  0  0  0  0
    4.5034   -1.2649    1.4127 C   0  0  0  0  0  0  0  0  0  0  0  0
    3.1828    0.7539    1.2398 C   0  0  0  0  0  0  0  0  0  0  0  0
    2.4053   -0.3105    0.6516 N   0  0  0  0  0  0  0  0  0  0  0  0
    1.0264   -0.1592    0.6417 C   0  0  0  0  0  0  0  0  0  0  0  0
    0.4656    0.8383    1.1083 O   0  0  0  0  0  0  0  0  0  0  0  0
    0.1215   -1.3278    0.0106 C   0  0  2  0  0  0  0  0  0  0  0  0
   -0.5741   -0.4440   -1.1500 C   0  0  0  0  0  0  0  0  0  0  0  0
    0.3207    0.1203   -2.1109 C   0  0  0  0  0  0  0  0  0  0  0  0
    1.3152    1.0245   -1.4963 C   0  0  0  0  0  0  0  0  0  0  0  0
    1.0037   -0.7594   -3.1072 C   0  0  0  0  0  0  0  0  0  0  0  0
   -1.0579   -1.2124    1.0401 N   0  0  0  0  0  0  0  0  0  0  0  0
   -2.3728   -1.1555    0.5369 C   0  0  0  0  0  0  0  0  0  0  0  0
   -2.4949   -1.2095   -0.7077 O   0  0  0  0  0  0  0  0  0  0  0  0
   -3.5716   -1.0385    1.3743 C   0  0  0  0  0  0  0  0  0  0  0  0
   -4.8501   -0.7040    0.7260 C   0  0  0  0  0  0  0  0  0  0  0  0
   -4.9736    0.5952    0.0526 C   0  0  0  0  0  0  0  0  0  0  0  0
   -4.0483    0.8820   -1.0696 C   0  0  0  0  0  0  0  0  0  0  0  0
   -4.8842    1.6889    1.1278 C   0  0  0  0  0  0  0  0  0  0  0  0
    5.5494    0.1192   -2.4967 C   0  0  0  0  0  0  0  0  0  0  0  0
    4.5109    0.8046   -1.4050 C   0  0  2  0  0  0  0  0  0  0  0  0
    5.1809   -0.0464   -0.1525 C   0  0  0  0  0  0  0  0  0  0  0  0
    6.5423    0.3955   -0.1802 N   0  0  0  0  0  0  0  0  0  0  0  0
    7.0691    1.4164    0.4564 N   0  0  0  0  0  0  0  0  0  0  0  0
    8.3849    1.4921    0.1619 C   0  0  0  0  0  0  0  0  0  0  0  0
    8.6371    0.4759   -0.6796 N   0  0  0  0  0  0  0  0  0  0  0  0
    7.5070   -0.1687   -0.8681 N   0  0  0  0  0  0  0  0  0  0  0  0
    3.3981   -0.2469   -1.6753 N   0  0  0  0  0  0  0  0  0  0  0  0
    2.1917   -0.1237   -0.9497 C   0  0  0  0  0  0  0  0  0  0  0  0
    2.1073    0.8996   -0.0808 N   0  0  0  0  0  0  0  0  0  0  0  0
    0.9920    1.1135    0.6707 C   0  0  0  0  0  0  0  0  0  0  0  0
   -0.0783    0.2571    0.5357 C   0  0  0  0  0  0  0  0  0  0  0  0
   -1.2415    0.4052    1.2589 C   0  0  0  0  0  0  0  0  0  0  0  0
   -2.2983   -0.4789    1.0946 C   0  0  0  0  0  0  0  0  0  0  0  0
   -3.4417   -0.3287    1.8092 O   0  0  0  0  0  0  0  0  0  0  0  0
   -4.7042   -0.1273    1.3408 C   0  0  0  0  0  0  0  0  0  0  0  0
   -5.6645   -1.0642    1.6645 C   0  0  0  0  0  0  0  0  0  0  0  0
   -6.9687   -0.9342    1.2293 C   0  0  0  0  0  0  0  0  0  0  0  0
   -7.3169    0.1580    0.4535 C   0  0  0  0  0  0  0  0  0  0  0  0
   -8.6002    0.3219    0.0029 F   0  0  0  0  0  0  0  0  0  0  0  0
   -6.3864    1.0976    0.1200 C   0  0  0  0  0  0  0  0  0  0  0  0
   -5.0945    0.9429    0.5672 C   0  0  0  0  0  0  0  0  0  0  0  0
   -4.1569    1.8745    0.2407 F   0  0  0  0  0  0  0  0  0  0  0  0
   -2.1871   -1.5185    0.1986 C   0  0  0  0  0  0  0  0  0  0  0  0
   -3.1423   -2.3494    0.0244 O   0  0  0  0  0  0  0  0  0  0  0  0
   -1.0352   -1.6221   -0.4829 N   0  0  0  0  0  0  0  0  0  0  0  0
   -0.9209   -2.7264   -1.4327 C   0  0  0  0  0  0  0  0  0  0  0  0
    0.0156   -0.7917   -0.3588 C   0  0  0  0  0  0  0  0  0  0  0  0
    1.1514   -0.9387   -1.0668 N   0  0  0  0  0  0  0  0  0  0  0  0
  1  2  1  0
  2  3  1  0
  3  4  1  1
  3  5  1  0
  5  6  1  0
  6  7  1  0
  7  8  2  0
  7  9  1  0
  9 10  1  6
 10 11  1  0
 11 12  1  0
 11 13  1  0
  9 14  1  0
 14 15  1  0
 15 16  2  0
 15 17  1  0
 17 18  1  0
 18 19  1  0
 19 20  1  0
 19 21  1  0
 23 22  1  6
 23 24  1  0
 24 25  1  0
 25 26  1  0
 26 27  2  0
 27 28  1  0
 28 29  2  0
 23 30  1  0
 30 31  1  0
 31 32  2  0
 32 33  1  0
 33 34  2  0
 34 35  1  0
 35 36  2  0
 36 37  1  0
 37 38  1  0
 38 39  2  0
 39 40  1  0
 40 41  2  0
 41 42  1  0
 41 43  1  0
 43 44  2  0
 44 45  1  0
 36 46  1  0
 46 47  2  0
 46 48  1  0
 48 49  1  0
 48 50  1  0
 50 51  2  0
 29 25  1  0
 51 31  1  0
 50 34  1  0
 44 38  1  0
M  END

