
     RDKit          3D

 46 48  0  0  0  0  0  0  0  0999 V2000
   -3.8745    2.4722   -0.9164 C   0  0  0  0  0  0  0  0  0  0  0  0
   -3.1420    1.2976   -1.3458 N   0  0  0  0  0  0  0  0  0  0  0  0
   -2.3881    0.5690   -0.3987 C   0  0  0  0  0  0  0  0  0  0  0  0
   -2.2922    0.8599    0.8247 O   0  0  0  0  0  0  0  0  0  0  0  0
   -1.5924   -0.7137   -0.9076 C   0  0  1  0  0  0  0  0  0  0  0  0
   -0.3868   -0.5002    0.0623 N   0  0  0  0  0  0  0  0  0  0  0  0
    0.7120    0.1909   -0.4612 C   0  0  0  0  0  0  0  0  0  0  0  0
    0.6972    0.6014   -1.6362 O   0  0  0  0  0  0  0  0  0  0  0  0
    1.8644    0.4045    0.4293 C   0  0  0  0  0  0  0  0  0  0  0  0
    2.8525    1.2525   -0.3483 C   0  0  0  0  0  0  0  0  0  0  0  0
    4.0805    1.5179    0.4836 C   0  0  0  0  0  0  0  0  0  0  0  0
    4.8445   -0.1009    0.8549 S   0  0  0  0  0  0  0  0  0  0  0  0
    5.4513   -0.7696   -0.7393 C   0  0  0  0  0  0  0  0  0  0  0  0
   -2.4000   -1.7641    0.2024 C   0  0  1  0  0  0  0  0  0  0  0  0
   -3.1607   -2.5555   -1.0514 C   0  0  0  0  0  0  0  0  0  0  0  0
   -1.2657   -2.7619    0.2296 O   0  0  0  0  0  0  0  0  0  0  0  0
   -6.4153   -1.0568   -1.5403 C   0  0  0  0  0  0  0  0  0  0  0  0
   -5.1046   -1.7012   -0.8210 C   0  0  2  0  0  0  0  0  0  0  0  0
   -5.2964   -0.9007    0.5756 C   0  0  0  0  0  0  0  0  0  0  0  0
   -5.2571    0.5061    0.3374 N   0  0  0  0  0  0  0  0  0  0  0  0
   -4.2375    1.3575    0.3318 N   0  0  0  0  0  0  0  0  0  0  0  0
   -4.6719    2.6003    0.0561 C   0  0  0  0  0  0  0  0  0  0  0  0
   -6.0002    2.5055   -0.1122 N   0  0  0  0  0  0  0  0  0  0  0  0
   -6.3266    1.2353    0.0624 N   0  0  0  0  0  0  0  0  0  0  0  0
   -4.1068   -0.6826   -1.4333 N   0  0  0  0  0  0  0  0  0  0  0  0
   -2.7374   -0.9154   -1.0203 C   0  0  0  0  0  0  0  0  0  0  0  0
   -2.4144   -1.9234   -0.1903 N   0  0  0  0  0  0  0  0  0  0  0  0
   -1.1816   -2.2107    0.2412 C   0  0  0  0  0  0  0  0  0  0  0  0
   -0.1674   -1.3655   -0.2351 C   0  0  0  0  0  0  0  0  0  0  0  0
    1.1423   -1.5587    0.1371 C   0  0  0  0  0  0  0  0  0  0  0  0
    2.1754   -0.7625   -0.2983 C   0  0  0  0  0  0  0  0  0  0  0  0
    3.4383   -1.0322    0.1249 O   0  0  0  0  0  0  0  0  0  0  0  0
    4.2916   -0.2583    0.8203 C   0  0  0  0  0  0  0  0  0  0  0  0
    3.9847    1.0135    1.2343 C   0  0  0  0  0  0  0  0  0  0  0  0
    4.8627    1.8009    1.9461 C   0  0  0  0  0  0  0  0  0  0  0  0
    6.0953    1.3051    2.2594 C   0  0  0  0  0  0  0  0  0  0  0  0
    7.0033    2.0514    2.9663 F   0  0  0  0  0  0  0  0  0  0  0  0
    6.4517    0.0265    1.8636 C   0  0  0  0  0  0  0  0  0  0  0  0
    5.5347   -0.7484    1.1405 C   0  0  0  0  0  0  0  0  0  0  0  0
    5.9087   -2.0013    0.7633 F   0  0  0  0  0  0  0  0  0  0  0  0
    1.8211    0.2681   -1.1509 C   0  0  0  0  0  0  0  0  0  0  0  0
    2.7265    1.0201   -1.5742 O   0  0  0  0  0  0  0  0  0  0  0  0
    0.5409    0.4556   -1.5138 N   0  0  0  0  0  0  0  0  0  0  0  0
    0.1642    1.5520   -2.4209 C   0  0  0  0  0  0  0  0  0  0  0  0
   -0.4724   -0.3299   -1.0833 C   0  0  0  0  0  0  0  0  0  0  0  0
   -1.7519   -0.1161   -1.4662 N   0  0  0  0  0  0  0  0  0  0  0  0
  1  2  1  0
  2  3  1  0
  3  4  2  0
  3  5  1  0
  5  6  1  1
  6  7  1  0
  7  8  2  0
  7  9  1  0
  9 10  1  0
 10 11  1  0
 11 12  1  0
 12 13  1  0
  5 14  1  0
 14 15  1  6
 14 16  1  0
 18 17  1  6
 18 19  1  0
 19 20  1  0
 20 21  1  0
 21 22  2  0
 22 23  1  0
 23 24  2  0
 18 25  1  0
 25 26  1  0
 26 27  2  0
 27 28  1  0
 28 29  2  0
 29 30  1  0
 30 31  2  0
 31 32  1  0
 32 33  1  0
 33 34  2  0
 34 35  1  0
 35 36  2  0
 36 37  1  0
 36 38  1  0
 38 39  2  0
 39 40  1  0
 31 41  1  0
 41 42  2  0
 41 43  1  0
 43 44  1  0
 43 45  1  0
 45 46  2  0
 24 20  1  0
 46 26  1  0
 45 29  1  0
 39 33  1  0
M  END

