
     RDKit          3D

 51 53  0  0  0  0  0  0  0  0999 V2000
    6.1910    0.0350    1.5447 C   0  0  0  0  0  0  0  0  0  0  0  0
    4.9593    0.0128    0.6368 C   0  0  0  0  0  0  0  0  0  0  0  0
    5.0653   -1.1632   -0.3204 C   0  0  0  0  0  0  0  0  0  0  0  0
    4.8666    1.3024   -0.1550 C   0  0  0  0  0  0  0  0  0  0  0  0
    3.6468    1.2570   -1.0414 C   0  0  0  0  0  0  0  0  0  0  0  0
    2.4886    1.1087   -0.1609 N   0  0  0  0  0  0  0  0  0  0  0  0
    1.1910    1.0316   -0.7644 C   0  0  0  0  0  0  0  0  0  0  0  0
    1.0951    1.0862   -1.9449 O   0  0  0  0  0  0  0  0  0  0  0  0
    0.0010    0.8759    0.2781 C   0  0  2  0  0  0  0  0  0  0  0  0
    0.1172   -0.7156    0.4988 C   0  0  0  0  0  0  0  0  0  0  0  0
   -0.0486   -1.4894   -0.6702 C   0  0  0  0  0  0  0  0  0  0  0  0
    0.0754   -2.9346   -0.3577 C   0  0  0  0  0  0  0  0  0  0  0  0
   -1.0271   -1.2528   -1.7285 C   0  0  0  0  0  0  0  0  0  0  0  0
   -1.1510    0.8080   -0.7603 N   0  0  0  0  0  0  0  0  0  0  0  0
   -2.4178    0.7397   -0.1129 C   0  0  0  0  0  0  0  0  0  0  0  0
   -2.4840    0.7362    1.1505 O   0  0  0  0  0  0  0  0  0  0  0  0
   -3.6965    0.6710   -0.8963 C   0  0  0  0  0  0  0  0  0  0  0  0
   -4.8485    0.6232    0.1171 C   0  0  0  0  0  0  0  0  0  0  0  0
   -4.7144   -0.5713    0.9722 C   0  0  0  0  0  0  0  0  0  0  0  0
   -4.6430   -0.4725    2.3511 O   0  0  0  0  0  1  0  0  0  0  0  0
   -4.6662   -1.6885    0.4131 O   0  0  0  0  0  0  0  0  0  0  0  0
   -3.6843   -0.0014   -0.3246 C   0  0  0  0  0  0  0  0  0  0  0  0
   -3.9530    1.1774   -1.4743 C   0  0  2  0  0  0  0  0  0  0  0  0
   -5.1705    0.3014   -2.2268 C   0  0  0  0  0  0  0  0  0  0  0  0
   -6.1686    0.1108   -1.2180 N   0  0  0  0  0  0  0  0  0  0  0  0
   -6.1589   -0.9392   -0.4152 N   0  0  0  0  0  0  0  0  0  0  0  0
   -7.1823   -0.8924    0.4320 C   0  0  0  0  0  0  0  0  0  0  0  0
   -7.8381    0.2381    0.1248 N   0  0  0  0  0  0  0  0  0  0  0  0
   -7.2152    0.8251   -0.8663 N   0  0  0  0  0  0  0  0  0  0  0  0
   -2.8763    0.6339   -2.5011 N   0  0  0  0  0  0  0  0  0  0  0  0
   -1.5649    0.5551   -2.1194 C   0  0  0  0  0  0  0  0  0  0  0  0
   -0.6583    0.0939   -2.9940 N   0  0  0  0  0  0  0  0  0  0  0  0
    0.6491   -0.0129   -2.6927 C   0  0  0  0  0  0  0  0  0  0  0  0
    1.1196    0.3506   -1.4594 C   0  0  0  0  0  0  0  0  0  0  0  0
    2.4538    0.2638   -1.0898 C   0  0  0  0  0  0  0  0  0  0  0  0
    2.8850    0.6424    0.1675 C   0  0  0  0  0  0  0  0  0  0  0  0
    4.2334    0.5572    0.5480 O   0  0  0  0  0  0  0  0  0  0  0  0
    4.5132   -0.2542    1.6292 C   0  0  0  0  0  0  0  0  0  0  0  0
    5.1080    0.3100    2.7488 C   0  0  0  0  0  0  0  0  0  0  0  0
    5.3673   -0.5368    3.7994 C   0  0  0  0  0  0  0  0  0  0  0  0
    5.0474   -1.8809    3.7330 C   0  0  0  0  0  0  0  0  0  0  0  0
    5.3185   -2.6759    4.7848 F   0  0  0  0  0  0  0  0  0  0  0  0
    4.4586   -2.4203    2.6145 C   0  0  0  0  0  0  0  0  0  0  0  0
    4.1904   -1.5877    1.5502 C   0  0  0  0  0  0  0  0  0  0  0  0
    3.6078   -2.0561    0.4100 F   0  0  0  0  0  0  0  0  0  0  0  0
    1.9217    1.1114    1.0378 C   0  0  0  0  0  0  0  0  0  0  0  0
    2.2754    1.4637    2.1862 O   0  0  0  0  0  0  0  0  0  0  0  0
    0.6187    1.1957    0.6756 N   0  0  0  0  0  0  0  0  0  0  0  0
   -0.3999    1.6912    1.5948 C   0  0  0  0  0  0  0  0  0  0  0  0
    0.1976    0.8271   -0.5491 C   0  0  0  0  0  0  0  0  0  0  0  0
   -1.0951    0.9092   -0.9127 N   0  0  0  0  0  0  0  0  0  0  0  0
  1  2  1  0
  2  3  1  0
  2  4  1  0
  4  5  1  0
  5  6  1  0
  6  7  1  0
  7  8  2  0
  7  9  1  0
  9 10  1  6
 10 11  1  0
 11 12  1  0
 11 13  1  0
  9 14  1  0
 14 15  1  0
 15 16  2  0
 15 17  1  0
 17 18  1  0
 18 19  1  0
 19 20  1  0
 19 21  2  0
 23 22  1  1
 23 24  1  0
 24 25  1  0
 25 26  1  0
 26 27  2  0
 27 28  1  0
 28 29  2  0
 23 30  1  0
 30 31  1  0
 31 32  2  0
 32 33  1  0
 33 34  2  0
 34 35  1  0
 35 36  2  0
 36 37  1  0
 37 38  1  0
 38 39  2  0
 39 40  1  0
 40 41  2  0
 41 42  1  0
 41 43  1  0
 43 44  2  0
 44 45  1  0
 36 46  1  0
 46 47  2  0
 46 48  1  0
 48 49  1  0
 48 50  1  0
 50 51  2  0
 29 25  1  0
 51 31  1  0
 50 34  1  0
 44 38  1  0
M  RAD  1  20   2
M  END

