
     RDKit          3D

 52 54  0  0  0  0  0  0  0  0999 V2000
    5.6699    2.3989    1.7715 C   0  0  0  0  0  0  0  0  0  0  0  0
    5.0240    1.1286    2.2824 C   0  0  0  0  0  0  0  0  0  0  0  0
    3.4388    1.2589    1.9526 C   0  0  2  0  0  0  0  0  0  0  0  0
    3.0785   -0.1894    2.6061 C   0  0  0  0  0  0  0  0  0  0  0  0
    3.5835    0.6401    0.4453 C   0  0  0  0  0  0  0  0  0  0  0  0
    2.2406    0.6176   -0.1451 C   0  0  0  0  0  0  0  0  0  0  0  0
    1.3317    1.1559    0.5241 O   0  0  0  0  0  0  0  0  0  0  0  0
    1.8632    0.0635   -1.3714 N   0  0  0  0  0  0  0  0  0  0  0  0
    0.4820    0.0505   -1.9306 C   0  0  1  0  0  0  0  0  0  0  0  0
    0.4378   -1.4139   -2.5238 C   0  0  0  0  0  0  0  0  0  0  0  0
    0.7191   -2.4736   -1.6148 C   0  0  0  0  0  0  0  0  0  0  0  0
    0.5246   -3.7651   -2.1442 O   0  0  0  0  0  1  0  0  0  0  0  0
    1.1115   -2.4905   -0.4242 O   0  0  0  0  0  0  0  0  0  0  0  0
   -0.5064   -0.0219   -0.8022 C   0  0  0  0  0  0  0  0  0  0  0  0
   -0.3044   -0.6673    0.1995 O   0  0  0  0  0  0  0  0  0  0  0  0
   -1.7374    0.6849   -0.8663 N   0  0  0  0  0  0  0  0  0  0  0  0
   -2.6728    0.6712    0.1495 C   0  0  0  0  0  0  0  0  0  0  0  0
   -3.2994   -0.5646    0.6222 C   0  0  0  0  0  0  0  0  0  0  0  0
   -4.2716   -0.1696    1.7527 C   0  0  0  0  0  0  0  0  0  0  0  0
   -5.2708    0.7599    1.1795 C   0  0  0  0  0  0  0  0  0  0  0  0
   -6.2521    1.2886    1.9920 O   0  0  0  0  0  1  0  0  0  0  0  0
   -5.1904    1.0372   -0.0438 O   0  0  0  0  0  0  0  0  0  0  0  0
    4.2187    0.2834   -1.9153 C   0  0  0  0  0  0  0  0  0  0  0  0
    4.7385    1.6378   -1.1674 C   0  0  2  0  0  0  0  0  0  0  0  0
    4.3301    1.1153    0.3250 C   0  0  0  0  0  0  0  0  0  0  0  0
    5.1499   -0.0850    0.4105 N   0  0  0  0  0  0  0  0  0  0  0  0
    6.3845   -0.1646    0.8727 N   0  0  0  0  0  0  0  0  0  0  0  0
    6.8246   -1.4323    0.7983 C   0  0  0  0  0  0  0  0  0  0  0  0
    5.8162   -2.1524    0.2692 N   0  0  0  0  0  0  0  0  0  0  0  0
    4.8103   -1.2974    0.0451 N   0  0  0  0  0  0  0  0  0  0  0  0
    3.4380    2.4385   -1.3852 N   0  0  0  0  0  0  0  0  0  0  0  0
    2.2021    2.0899   -0.9358 C   0  0  0  0  0  0  0  0  0  0  0  0
    1.2820    3.0100   -1.2991 N   0  0  0  0  0  0  0  0  0  0  0  0
   -0.0254    2.9297   -0.9943 C   0  0  0  0  0  0  0  0  0  0  0  0
   -0.4478    1.8583   -0.2773 C   0  0  0  0  0  0  0  0  0  0  0  0
   -1.7992    1.7709    0.0403 C   0  0  0  0  0  0  0  0  0  0  0  0
   -2.2551    0.6911    0.7688 C   0  0  0  0  0  0  0  0  0  0  0  0
   -3.5875    0.6309    1.0667 O   0  0  0  0  0  0  0  0  0  0  0  0
   -4.3530   -0.4358    0.6284 C   0  0  0  0  0  0  0  0  0  0  0  0
   -5.0028   -1.2518    1.5143 C   0  0  0  0  0  0  0  0  0  0  0  0
   -5.7650   -2.3166    1.0402 C   0  0  0  0  0  0  0  0  0  0  0  0
   -5.8914   -2.5818   -0.2869 C   0  0  0  0  0  0  0  0  0  0  0  0
   -6.6332   -3.6156   -0.7158 F   0  0  0  0  0  0  0  0  0  0  0  0
   -5.2308   -1.7521   -1.1872 C   0  0  0  0  0  0  0  0  0  0  0  0
   -4.4699   -0.6897   -0.7207 C   0  0  0  0  0  0  0  0  0  0  0  0
   -3.8108    0.1416   -1.5694 F   0  0  0  0  0  0  0  0  0  0  0  0
   -1.3182   -0.2482    1.1402 C   0  0  0  0  0  0  0  0  0  0  0  0
   -1.7421   -1.2322    1.8057 O   0  0  0  0  0  0  0  0  0  0  0  0
   -0.0018   -0.1330    0.8129 N   0  0  0  0  0  0  0  0  0  0  0  0
    0.8982   -1.1536    1.2396 C   0  0  0  0  0  0  0  0  0  0  0  0
    0.4685    0.9032    0.1074 C   0  0  0  0  0  0  0  0  0  0  0  0
    1.7723    1.0416   -0.2311 N   0  0  0  0  0  0  0  0  0  0  0  0
  1  2  1  0
  2  3  1  0
  3  4  1  1
  3  5  1  0
  5  6  1  0
  6  7  2  0
  6  8  1  0
  8  9  1  0
  9 10  1  6
 10 11  1  0
 11 12  1  0
 11 13  2  0
  9 14  1  0
 14 15  2  0
 14 16  1  0
 16 17  1  0
 17 18  1  0
 18 19  1  0
 19 20  1  0
 20 21  1  0
 20 22  2  0
 24 23  1  6
 24 25  1  0
 25 26  1  0
 26 27  1  0
 27 28  2  0
 28 29  1  0
 29 30  2  0
 24 31  1  0
 31 32  1  0
 32 33  2  0
 33 34  1  0
 34 35  2  0
 35 36  1  0
 36 37  2  0
 37 38  1  0
 38 39  1  0
 39 40  2  0
 40 41  1  0
 41 42  2  0
 42 43  1  0
 42 44  1  0
 44 45  2  0
 45 46  1  0
 37 47  1  0
 47 48  2  0
 47 49  1  0
 49 50  1  0
 49 51  1  0
 51 52  2  0
 30 26  1  0
 52 32  1  0
 51 35  1  0
 45 39  1  0
M  RAD  2  12   2  21   2
M  END

