
     RDKit          3D

 50 52  0  0  0  0  0  0  0  0999 V2000
   -4.9544    1.3017    2.3005 C   0  0  0  0  0  0  0  0  0  0  0  0
   -4.6426   -0.0426    1.6733 C   0  0  0  0  0  0  0  0  0  0  0  0
   -3.3089    0.0716    0.9442 C   0  0  0  0  0  0  0  0  0  0  0  0
   -2.6800    1.1204    0.9250 O   0  0  0  0  0  0  0  0  0  0  0  0
   -2.8939   -1.0408    0.3440 N   0  0  0  0  0  0  0  0  0  0  0  0
   -1.7578   -1.4988   -0.4565 C   0  0  2  0  0  0  0  0  0  0  0  0
   -0.7546   -0.3707   -0.6772 C   0  0  0  0  0  0  0  0  0  0  0  0
   -0.6619    0.7632   -0.3798 O   0  0  0  0  0  0  0  0  0  0  0  0
    0.3365   -0.9260   -1.4666 N   0  0  0  0  0  0  0  0  0  0  0  0
    1.4633   -0.1035   -1.8522 C   0  0  0  0  0  0  0  0  0  0  0  0
    2.0605    0.3588   -0.5178 C   0  0  0  0  0  0  0  0  0  0  0  0
    2.4370   -0.9237    0.1776 C   0  0  0  0  0  0  0  0  0  0  0  0
    3.0462   -0.7500    1.5164 C   0  0  0  0  0  0  0  0  0  0  0  0
    4.2659    0.0115    1.5311 N   0  0  0  0  0  0  0  0  0  0  0  0
    5.3706   -0.4779    0.7717 C   0  0  0  0  0  0  0  0  0  0  0  0
    6.5691    0.2445    0.7685 N   0  0  0  0  0  0  0  0  0  0  0  0
    5.2469   -1.5665    0.1076 N   0  0  0  0  0  4  0  0  0  0  0  0
   -2.4309   -1.5517   -2.0363 C   0  0  1  0  0  0  0  0  0  0  0  0
   -3.8838   -2.0824   -1.5537 C   0  0  0  0  0  0  0  0  0  0  0  0
   -2.8274   -0.1047   -2.1198 O   0  0  0  0  0  0  0  0  0  0  0  0
    3.7521   -2.0705    1.9833 C   0  0  0  0  0  0  0  0  0  0  0  0
    4.6828   -1.3189    0.8323 C   0  0  2  0  0  0  0  0  0  0  0  0
    5.5320   -0.4672    1.9632 C   0  0  0  0  0  0  0  0  0  0  0  0
    6.4692    0.3215    1.2220 N   0  0  0  0  0  0  0  0  0  0  0  0
    7.6827   -0.0009    0.8652 N   0  0  0  0  0  0  0  0  0  0  0  0
    8.2084    1.0545    0.1744 C   0  0  0  0  0  0  0  0  0  0  0  0
    7.2659    2.0130    0.1337 N   0  0  0  0  0  0  0  0  0  0  0  0
    6.2334    1.5345    0.7751 N   0  0  0  0  0  0  0  0  0  0  0  0
    3.6393   -0.1560    0.6132 N   0  0  0  0  0  0  0  0  0  0  0  0
    2.3565   -0.5891    0.1750 C   0  0  0  0  0  0  0  0  0  0  0  0
    2.0646   -1.8562   -0.0306 N   0  0  0  0  0  0  0  0  0  0  0  0
    0.8466   -2.2293   -0.4432 C   0  0  0  0  0  0  0  0  0  0  0  0
   -0.0993   -1.2544   -0.6490 C   0  0  0  0  0  0  0  0  0  0  0  0
   -1.3578   -1.5655   -1.0685 C   0  0  0  0  0  0  0  0  0  0  0  0
   -2.2599   -0.5392   -1.2560 C   0  0  0  0  0  0  0  0  0  0  0  0
   -3.5254   -0.8839   -1.6808 O   0  0  0  0  0  0  0  0  0  0  0  0
   -4.6862   -0.6123   -0.9747 C   0  0  0  0  0  0  0  0  0  0  0  0
   -5.6565    0.1743   -1.5626 C   0  0  0  0  0  0  0  0  0  0  0  0
   -6.8421    0.4766   -0.8937 C   0  0  0  0  0  0  0  0  0  0  0  0
   -7.0713   -0.0094    0.3819 C   0  0  0  0  0  0  0  0  0  0  0  0
   -8.2256    0.2856    1.0318 F   0  0  0  0  0  0  0  0  0  0  0  0
   -6.0889   -0.7894    0.9426 C   0  0  0  0  0  0  0  0  0  0  0  0
   -4.9042   -1.1036    0.3000 C   0  0  0  0  0  0  0  0  0  0  0  0
   -3.9477   -1.8758    0.8728 F   0  0  0  0  0  0  0  0  0  0  0  0
   -1.9274    0.7721   -1.0338 C   0  0  0  0  0  0  0  0  0  0  0  0
   -2.7887    1.6967   -1.2178 O   0  0  0  0  0  0  0  0  0  0  0  0
   -0.6794    1.0517   -0.6203 N   0  0  0  0  0  0  0  0  0  0  0  0
   -0.3466    2.4587   -0.3893 C   0  0  0  0  0  0  0  0  0  0  0  0
    0.2179    0.0787   -0.4295 C   0  0  0  0  0  0  0  0  0  0  0  0
    1.4556    0.3852   -0.0168 N   0  0  0  0  0  0  0  0  0  0  0  0
  1  2  1  0
  2  3  1  0
  3  4  2  0
  3  5  1  0
  6  5  1  1
  6  7  1  0
  7  8  2  0
  7  9  1  0
  9 10  1  0
 10 11  1  0
 11 12  1  0
 12 13  1  0
 13 14  1  0
 14 15  1  0
 15 16  1  0
 15 17  2  0
  6 18  1  0
 18 19  1  1
 18 20  1  0
 22 21  1  1
 22 23  1  0
 23 24  1  0
 24 25  1  0
 25 26  2  0
 26 27  1  0
 27 28  2  0
 22 29  1  0
 29 30  1  0
 30 31  2  0
 31 32  1  0
 32 33  2  0
 33 34  1  0
 34 35  2  0
 35 36  1  0
 36 37  1  0
 37 38  2  0
 38 39  1  0
 39 40  2  0
 40 41  1  0
 40 42  1  0
 42 43  2  0
 43 44  1  0
 35 45  1  0
 45 46  2  0
 45 47  1  0
 47 48  1  0
 47 49  1  0
 49 50  2  0
 28 24  1  0
 50 30  1  0
 49 33  1  0
 43 37  1  0
M  CHG  1  17   1
M  END

