
     RDKit          3D

 50 52  0  0  0  0  0  0  0  0999 V2000
   -4.1132    0.0782    1.3618 C   0  0  0  0  0  0  0  0  0  0  0  0
   -4.7825    0.4208    0.0997 C   0  0  0  0  0  0  0  0  0  0  0  0
   -5.3868   -0.7734   -0.6179 C   0  0  0  0  0  0  0  0  0  0  0  0
   -3.9961    1.2253   -0.8500 C   0  0  0  0  0  0  0  0  0  0  0  0
   -2.7504    0.6231   -1.3189 C   0  0  0  0  0  0  0  0  0  0  0  0
   -1.6885    0.3947   -0.3413 C   0  0  0  0  0  0  0  0  0  0  0  0
   -1.7613    0.9299    0.7887 O   0  0  0  0  0  0  0  0  0  0  0  0
   -0.5724   -0.4497   -0.6895 N   0  0  0  0  0  0  0  0  0  0  0  0
    0.4606   -0.5574    0.5381 C   0  0  1  0  0  0  0  0  0  0  0  0
    1.2757   -1.8153   -0.2368 C   0  0  0  0  0  0  0  0  0  0  0  0
    0.2028   -2.8778   -0.3895 C   0  0  0  0  0  0  0  0  0  0  0  0
   -0.3369   -3.3068    0.9691 C   0  0  0  0  0  0  0  0  0  0  0  0
    0.8865   -4.0786   -1.0040 C   0  0  0  0  0  0  0  0  0  0  0  0
    1.4637    0.5424   -0.0363 C   0  0  0  0  0  0  0  0  0  0  0  0
    1.6509    0.6362   -1.2479 O   0  0  0  0  0  0  0  0  0  0  0  0
    2.0766    1.3471    0.8755 N   0  0  0  0  0  0  0  0  0  0  0  0
    2.9895    2.3693    0.7239 C   0  0  0  0  0  0  0  0  0  0  0  0
    4.3840    1.7175    0.0069 C   0  0  1  0  0  0  0  0  0  0  0  0
    5.3503    2.8767    0.7754 C   0  0  0  0  0  0  0  0  0  0  0  0
    4.6474    0.6978    1.1672 O   0  0  0  0  0  0  0  0  0  0  0  0
   -4.2419    2.1752   -0.2695 C   0  0  0  0  0  0  0  0  0  0  0  0
   -4.9620    1.0595   -1.2222 C   0  0  2  0  0  0  0  0  0  0  0  0
   -6.2058    0.7138   -0.2372 C   0  0  0  0  0  0  0  0  0  0  0  0
   -5.7736    0.2261    1.0024 N   0  0  0  0  0  0  0  0  0  0  0  0
   -5.4877    0.8763    2.1142 N   0  0  0  0  0  0  0  0  0  0  0  0
   -5.1045   -0.0120    3.0765 C   0  0  0  0  0  0  0  0  0  0  0  0
   -5.1721   -1.2266    2.4957 N   0  0  0  0  0  0  0  0  0  0  0  0
   -5.5772   -1.0594    1.2470 N   0  0  0  0  0  0  0  0  0  0  0  0
   -4.0776   -0.1089   -0.7086 N   0  0  0  0  0  0  0  0  0  0  0  0
   -2.6844    0.1362   -0.9798 C   0  0  0  0  0  0  0  0  0  0  0  0
   -2.2385    1.2409   -1.5980 N   0  0  0  0  0  0  0  0  0  0  0  0
   -0.9544    1.5135   -1.8720 C   0  0  0  0  0  0  0  0  0  0  0  0
    0.0134    0.5960   -1.4970 C   0  0  0  0  0  0  0  0  0  0  0  0
    1.3549    0.7966   -1.7397 C   0  0  0  0  0  0  0  0  0  0  0  0
    2.2650   -0.1462   -1.3457 C   0  0  0  0  0  0  0  0  0  0  0  0
    3.5986    0.0762   -1.5988 O   0  0  0  0  0  0  0  0  0  0  0  0
    4.4774    0.1351   -0.5383 C   0  0  0  0  0  0  0  0  0  0  0  0
    5.5030   -0.7691   -0.4962 C   0  0  0  0  0  0  0  0  0  0  0  0
    6.4094   -0.7474    0.5496 C   0  0  0  0  0  0  0  0  0  0  0  0
    6.2493    0.1929    1.5250 C   0  0  0  0  0  0  0  0  0  0  0  0
    7.1340    0.2144    2.5462 F   0  0  0  0  0  0  0  0  0  0  0  0
    5.2161    1.1094    1.4895 C   0  0  0  0  0  0  0  0  0  0  0  0
    4.3256    1.0794    0.4513 C   0  0  0  0  0  0  0  0  0  0  0  0
    3.3134    1.9768    0.4159 F   0  0  0  0  0  0  0  0  0  0  0  0
    1.7786   -1.2666   -0.7151 C   0  0  0  0  0  0  0  0  0  0  0  0
    2.5768   -2.1875   -0.3208 O   0  0  0  0  0  0  0  0  0  0  0  0
    0.4904   -1.4590   -0.4822 N   0  0  0  0  0  0  0  0  0  0  0  0
   -0.0441   -2.6398    0.1847 C   0  0  0  0  0  0  0  0  0  0  0  0
   -0.4300   -0.5382   -0.8638 C   0  0  0  0  0  0  0  0  0  0  0  0
   -1.7521   -0.7578   -0.6133 N   0  0  0  0  0  0  0  0  0  0  0  0
  1  2  1  0
  2  3  1  0
  2  4  1  0
  4  5  1  0
  5  6  1  0
  6  7  2  0
  6  8  1  0
  8  9  1  0
  9 10  1  6
 10 11  1  0
 11 12  1  0
 11 13  1  0
  9 14  1  0
 14 15  2  0
 14 16  1  0
 16 17  1  0
 17 18  1  0
 18 19  1  1
 18 20  1  0
 22 21  1  1
 22 23  1  0
 23 24  1  0
 24 25  1  0
 25 26  2  0
 26 27  1  0
 27 28  2  0
 22 29  1  0
 29 30  1  0
 30 31  2  0
 31 32  1  0
 32 33  2  0
 33 34  1  0
 34 35  2  0
 35 36  1  0
 36 37  1  0
 37 38  2  0
 38 39  1  0
 39 40  2  0
 40 41  1  0
 40 42  1  0
 42 43  2  0
 43 44  1  0
 35 45  1  0
 45 46  2  0
 45 47  1  0
 47 48  1  0
 47 49  1  0
 49 50  2  0
 28 24  1  0
 50 30  1  0
 49 33  1  0
 43 37  1  0
M  END

