
     RDKit          3D

 46 48  0  0  0  0  0  0  0  0999 V2000
    5.0149    1.6155    0.1587 C   0  0  0  0  0  0  0  0  0  0  0  0
    3.5720    1.5968   -0.0216 C   0  0  0  0  0  0  0  0  0  0  0  0
    2.9909    0.2017    0.0965 C   0  0  0  0  0  0  0  0  0  0  0  0
    3.3472   -0.5481    0.9637 O   0  0  0  0  0  0  0  0  0  0  0  0
    2.1289   -0.1697   -0.8366 N   0  0  0  0  0  0  0  0  0  0  0  0
    1.3737   -1.5185   -0.8067 C   0  0  1  0  0  0  0  0  0  0  0  0
    2.5461   -2.3204    0.0095 C   0  0  0  0  0  0  0  0  0  0  0  0
    0.4497   -1.2387    0.4187 C   0  0  0  0  0  0  0  0  0  0  0  0
    0.2960   -1.8920    1.1694 O   0  0  0  0  0  0  0  0  0  0  0  0
   -0.0101    0.1643    0.2458 N   0  0  0  0  0  0  0  0  0  0  0  0
   -1.3596    0.5304    1.0704 C   0  0  0  0  0  0  0  0  0  0  0  0
   -2.1859    0.3493   -0.3197 C   0  0  0  0  0  0  0  0  0  0  0  0
   -3.5604   -0.0963   -0.1064 C   0  0  0  0  0  0  0  0  0  0  0  0
   -4.5924    0.7603    0.3852 C   0  0  0  0  0  0  0  0  0  0  0  0
   -4.3538    2.1726    0.2036 N   0  0  0  0  0  0  0  0  0  0  0  0
   -5.6572    0.3927    0.9224 O   0  0  0  0  0  0  0  0  0  0  0  0
    4.1737   -1.6551   -0.9435 C   0  0  0  0  0  0  0  0  0  0  0  0
    4.8936   -0.2832   -0.3184 C   0  0  2  0  0  0  0  0  0  0  0  0
    5.7840   -1.1697    0.7684 C   0  0  0  0  0  0  0  0  0  0  0  0
    6.5515   -0.1821    1.4926 N   0  0  0  0  0  0  0  0  0  0  0  0
    7.7395    0.2308    1.1339 N   0  0  0  0  0  0  0  0  0  0  0  0
    8.1692    1.1457    2.0193 C   0  0  0  0  0  0  0  0  0  0  0  0
    7.1981    1.2806    2.9392 N   0  0  0  0  0  0  0  0  0  0  0  0
    6.2309    0.4588    2.5872 N   0  0  0  0  0  0  0  0  0  0  0  0
    3.7185   -0.0475    0.7146 N   0  0  0  0  0  0  0  0  0  0  0  0
    2.4567    0.1353    0.0620 C   0  0  0  0  0  0  0  0  0  0  0  0
    2.3098    0.1064   -1.2734 N   0  0  0  0  0  0  0  0  0  0  0  0
    1.1444    0.2737   -1.9155 C   0  0  0  0  0  0  0  0  0  0  0  0
   -0.0021    0.4928   -1.1790 C   0  0  0  0  0  0  0  0  0  0  0  0
   -1.2396    0.6742   -1.7680 C   0  0  0  0  0  0  0  0  0  0  0  0
   -2.3057    0.8843   -0.9223 C   0  0  0  0  0  0  0  0  0  0  0  0
   -3.5594    1.0702   -1.4656 O   0  0  0  0  0  0  0  0  0  0  0  0
   -4.6108    0.1933   -1.1526 C   0  0  0  0  0  0  0  0  0  0  0  0
   -4.4300   -0.8724   -0.3023 C   0  0  0  0  0  0  0  0  0  0  0  0
   -5.4612   -1.7222   -0.0029 C   0  0  0  0  0  0  0  0  0  0  0  0
   -6.7026   -1.5302   -0.5455 C   0  0  0  0  0  0  0  0  0  0  0  0
   -7.7382   -2.3499   -0.2699 F   0  0  0  0  0  0  0  0  0  0  0  0
   -6.8972   -0.4648   -1.4001 C   0  0  0  0  0  0  0  0  0  0  0  0
   -5.8601    0.3915   -1.7024 C   0  0  0  0  0  0  0  0  0  0  0  0
   -6.0168    1.4465   -2.5369 F   0  0  0  0  0  0  0  0  0  0  0  0
   -2.1294    0.9096    0.4437 C   0  0  0  0  0  0  0  0  0  0  0  0
   -3.1763    1.1111    1.1498 O   0  0  0  0  0  0  0  0  0  0  0  0
   -0.9336    0.7334    0.9891 N   0  0  0  0  0  0  0  0  0  0  0  0
   -0.7900    0.7667    2.4224 C   0  0  0  0  0  0  0  0  0  0  0  0
    0.1424    0.5236    0.1937 C   0  0  0  0  0  0  0  0  0  0  0  0
    1.3409    0.3487    0.7822 N   0  0  0  0  0  0  0  0  0  0  0  0
  1  2  1  0
  2  3  1  0
  3  4  2  0
  3  5  1  0
  5  6  1  0
  6  7  1  1
  6  8  1  0
  8  9  2  0
  8 10  1  0
 10 11  1  0
 11 12  1  0
 12 13  1  0
 13 14  1  0
 14 15  1  0
 14 16  2  0
 18 17  1  6
 18 19  1  0
 19 20  1  0
 20 21  1  0
 21 22  2  0
 22 23  1  0
 23 24  2  0
 18 25  1  0
 25 26  1  0
 26 27  2  0
 27 28  1  0
 28 29  2  0
 29 30  1  0
 30 31  2  0
 31 32  1  0
 32 33  1  0
 33 34  2  0
 34 35  1  0
 35 36  2  0
 36 37  1  0
 36 38  1  0
 38 39  2  0
 39 40  1  0
 31 41  1  0
 41 42  2  0
 41 43  1  0
 43 44  1  0
 43 45  1  0
 45 46  2  0
 24 20  1  0
 46 26  1  0
 45 29  1  0
 39 33  1  0
M  END

