
     RDKit          3D

 55 59  0  0  0  0  0  0  0  0999 V2000
    3.8541    2.3964    0.1102 C   0  0  0  0  0  0  0  0  0  0  0  0
    4.3221    1.6786    1.5228 C   0  0  2  0  0  0  0  0  0  0  0  0
    5.8926    1.4570    1.0945 C   0  0  0  0  0  0  0  0  0  0  0  0
    5.9713    0.6509   -0.0541 N   0  0  0  0  0  0  0  0  0  0  0  0
    5.9627    1.1837   -1.2907 N   0  0  0  0  0  0  0  0  0  0  0  0
    6.0460    0.2338   -2.2109 C   0  0  0  0  0  0  0  0  0  0  0  0
    6.1088   -0.9256   -1.5488 N   0  0  0  0  0  0  0  0  0  0  0  0
    6.0622   -0.6431   -0.2711 N   0  0  0  0  0  0  0  0  0  0  0  0
    3.8677    0.2472    1.0848 N   0  0  0  0  0  0  0  0  0  0  0  0
    2.4752    0.2211    0.8095 C   0  0  0  0  0  0  0  0  0  0  0  0
    1.6814    1.2924    0.9184 N   0  0  0  0  0  0  0  0  0  0  0  0
    0.3794    1.3295    0.6761 C   0  0  0  0  0  0  0  0  0  0  0  0
   -0.2265    0.1497    0.2703 C   0  0  0  0  0  0  0  0  0  0  0  0
   -1.5731    0.0778   -0.0073 C   0  0  0  0  0  0  0  0  0  0  0  0
   -2.1296   -1.1103   -0.4055 C   0  0  0  0  0  0  0  0  0  0  0  0
   -3.4798   -1.2469   -0.6996 O   0  0  0  0  0  0  0  0  0  0  0  0
   -4.3856   -0.2166   -0.6225 C   0  0  0  0  0  0  0  0  0  0  0  0
   -4.0422    1.0526   -0.2457 C   0  0  0  0  0  0  0  0  0  0  0  0
   -4.9836    2.0595   -0.1812 C   0  0  0  0  0  0  0  0  0  0  0  0
   -6.3150    1.8329   -0.4937 C   0  0  0  0  0  0  0  0  0  0  0  0
   -7.2296    2.8310   -0.4261 F   0  0  0  0  0  0  0  0  0  0  0  0
   -6.6597    0.5546   -0.8728 C   0  0  0  0  0  0  0  0  0  0  0  0
   -5.7050   -0.4676   -0.9386 C   0  0  0  0  0  0  0  0  0  0  0  0
   -6.0859   -1.7214   -1.3188 F   0  0  0  0  0  0  0  0  0  0  0  0
   -1.2945   -2.1965   -0.5100 C   0  0  0  0  0  0  0  0  0  0  0  0
   -1.8127   -3.2870   -0.8769 O   0  0  0  0  0  0  0  0  0  0  0  0
    0.0152   -2.1664   -0.2497 N   0  0  0  0  0  0  0  0  0  0  0  0
    0.8684   -3.3528   -0.3753 C   0  0  0  0  0  0  0  0  0  0  0  0
    0.5506   -0.9815    0.1436 C   0  0  0  0  0  0  0  0  0  0  0  0
    1.8649   -0.9332    0.4092 N   0  0  0  0  0  0  0  0  0  0  0  0
    6.4650    1.2834   -2.6164 N   0  0  0  0  0  0  0  0  0  0  0  0
    5.2693    1.3418   -1.8001 C   0  0  0  0  0  0  0  0  0  0  0  0
    5.3759    1.5116   -0.5771 O   0  0  0  0  0  0  0  0  0  0  0  0
    3.9321    1.2009   -2.4201 C   0  0  0  0  0  0  0  0  0  0  0  0
    2.9015    1.2231   -1.3065 C   0  0  0  0  0  0  0  0  0  0  0  0
    3.2131    0.0380   -0.3840 C   0  0  0  0  0  0  0  0  0  0  0  0
    2.2392    0.0593    0.6744 N   0  0  0  0  0  0  0  0  0  0  0  0
    0.8561   -0.0320    0.5465 C   0  0  0  0  0  0  0  0  0  0  0  0
    0.3540   -0.1437   -0.5665 O   0  0  0  0  0  0  0  0  0  0  0  0
   -0.0564    0.0084    1.8428 C   0  0  2  0  0  0  0  0  0  0  0  0
    0.1094   -1.6213    2.2070 C   0  0  0  0  0  0  0  0  0  0  0  0
   -0.3857   -2.3778    1.0941 C   0  0  0  0  0  0  0  0  0  0  0  0
    0.3569   -2.8389    0.0055 C   0  0  0  0  0  0  0  0  0  0  0  0
   -0.2331   -3.5553   -1.0142 C   0  0  0  0  0  0  0  0  0  0  0  0
   -1.5812   -3.8433   -0.9957 C   0  0  0  0  0  0  0  0  0  0  0  0
   -2.3435   -3.4020    0.0668 C   0  0  0  0  0  0  0  0  0  0  0  0
   -1.7222   -2.6874    1.0711 C   0  0  0  0  0  0  0  0  0  0  0  0
   -1.4493   -0.1283    1.1075 N   0  0  0  0  0  0  0  0  0  0  0  0
   -2.2580    0.9883    1.5140 C   0  0  0  0  0  0  0  0  0  0  0  0
   -1.9409    1.8743    2.2762 O   0  0  0  0  0  0  0  0  0  0  0  0
   -3.7173    0.9508    0.8203 C   0  0  2  0  0  0  0  0  0  0  0  0
   -3.2841    1.6781   -0.6120 C   0  0  0  0  0  0  0  0  0  0  0  0
   -3.2451    3.1106   -0.2495 C   0  0  0  0  0  0  0  0  0  0  0  0
   -4.6167    3.0911    0.4243 C   0  0  0  0  0  0  0  0  0  0  0  0
   -4.2389    2.2704    1.5107 N   0  0  0  0  0  0  0  0  0  0  0  0
  2  1  1  6
  2  3  1  0
  3  4  1  0
  4  5  1  0
  5  6  2  0
  6  7  1  0
  7  8  2  0
  2  9  1  0
  9 10  1  0
 10 11  2  0
 11 12  1  0
 12 13  2  0
 13 14  1  0
 14 15  2  0
 15 16  1  0
 16 17  1  0
 17 18  2  0
 18 19  1  0
 19 20  2  0
 20 21  1  0
 20 22  1  0
 22 23  2  0
 23 24  1  0
 15 25  1  0
 25 26  2  0
 25 27  1  0
 27 28  1  0
 27 29  1  0
 29 30  2  0
 31 32  1  0
 32 33  2  0
 32 34  1  0
 34 35  1  0
 35 36  1  0
 36 37  1  0
 37 38  1  0
 38 39  2  0
 38 40  1  0
 40 41  1  1
 41 42  1  0
 42 43  2  0
 43 44  1  0
 44 45  2  0
 45 46  1  0
 46 47  2  0
 40 48  1  0
 48 49  1  0
 49 50  2  0
 51 49  1  1
 51 52  1  0
 52 53  1  0
 53 54  1  0
 54 55  1  0
  8  4  1  0
 30 10  1  0
 47 42  1  0
 55 51  1  0
 29 13  1  0
 23 17  1  0
M  END

