
     RDKit          3D

 47 49  0  0  0  0  0  0  0  0999 V2000
   -5.6742    0.8779   -0.2500 C   0  0  0  0  0  0  0  0  0  0  0  0
   -4.3531    0.9903    0.2786 N   0  0  0  0  0  0  0  0  0  0  0  0
   -3.2469    0.2422   -0.1591 C   0  0  0  0  0  0  0  0  0  0  0  0
   -3.4152   -0.5677   -1.0566 O   0  0  0  0  0  0  0  0  0  0  0  0
   -1.8457    0.4737    0.5149 C   0  0  1  0  0  0  0  0  0  0  0  0
   -1.0875   -0.5461   -0.3530 N   0  0  0  0  0  0  0  0  0  0  0  0
    0.2679   -0.7945   -0.0056 C   0  0  0  0  0  0  0  0  0  0  0  0
    0.8452   -0.2189    0.9707 O   0  0  0  0  0  0  0  0  0  0  0  0
    0.9915   -1.7711   -0.8470 C   0  0  0  0  0  0  0  0  0  0  0  0
    2.4511   -1.9221   -0.4179 C   0  0  0  0  0  0  0  0  0  0  0  0
    3.0794   -0.5572   -0.5615 C   0  0  0  0  0  0  0  0  0  0  0  0
    4.5114   -0.6277   -0.1670 C   0  0  0  0  0  0  0  0  0  0  0  0
    4.6349   -1.0769    1.2571 C   0  0  0  0  0  0  0  0  0  0  0  0
    6.0539   -1.1298    1.6012 N   0  0  0  0  0  4  0  0  0  0  0  0
   -1.5106    1.9073   -0.3567 C   0  0  1  0  0  0  0  0  0  0  0  0
   -1.6793    2.8074    1.0152 C   0  0  0  0  0  0  0  0  0  0  0  0
   -0.0227    1.9130   -0.2661 O   0  0  0  0  0  0  0  0  0  0  0  0
    3.8470    0.3286   -0.5475 C   0  0  0  0  0  0  0  0  0  0  0  0
    4.5846   -0.5914    0.6353 C   0  0  2  0  0  0  0  0  0  0  0  0
    5.9190   -0.8485   -0.3024 C   0  0  0  0  0  0  0  0  0  0  0  0
    6.4055    0.4911   -0.5396 N   0  0  0  0  0  0  0  0  0  0  0  0
    6.0473    1.2587   -1.5545 N   0  0  0  0  0  0  0  0  0  0  0  0
    6.6631    2.4441   -1.5086 C   0  0  0  0  0  0  0  0  0  0  0  0
    7.4345    2.4046   -0.4172 N   0  0  0  0  0  0  0  0  0  0  0  0
    7.2646    1.2228    0.1499 N   0  0  0  0  0  0  0  0  0  0  0  0
    3.8742   -1.9156    0.1544 N   0  0  0  0  0  0  0  0  0  0  0  0
    2.4563   -1.8305    0.2165 C   0  0  0  0  0  0  0  0  0  0  0  0
    1.7709   -2.8985   -0.1690 N   0  0  0  0  0  0  0  0  0  0  0  0
    0.4269   -2.8803   -0.1334 C   0  0  0  0  0  0  0  0  0  0  0  0
   -0.2737   -1.7604    0.3012 C   0  0  0  0  0  0  0  0  0  0  0  0
   -1.6198   -1.6846    0.3579 C   0  0  0  0  0  0  0  0  0  0  0  0
   -2.3103   -0.5004    0.8161 C   0  0  0  0  0  0  0  0  0  0  0  0
   -3.6417   -0.6074    0.8065 O   0  0  0  0  0  0  0  0  0  0  0  0
   -4.7020   -0.0846    0.2139 C   0  0  0  0  0  0  0  0  0  0  0  0
   -5.3971   -1.0248   -0.6210 C   0  0  0  0  0  0  0  0  0  0  0  0
   -6.5033   -0.6908   -1.3098 C   0  0  0  0  0  0  0  0  0  0  0  0
   -6.9826    0.5996   -1.2076 C   0  0  0  0  0  0  0  0  0  0  0  0
   -8.0968    0.9238   -1.9065 F   0  0  0  0  0  0  0  0  0  0  0  0
   -6.3602    1.5202   -0.4315 C   0  0  0  0  0  0  0  0  0  0  0  0
   -5.2021    1.1767    0.2927 C   0  0  0  0  0  0  0  0  0  0  0  0
   -4.6471    2.1276    1.0793 F   0  0  0  0  0  0  0  0  0  0  0  0
   -1.5479    0.5608    1.1988 C   0  0  0  0  0  0  0  0  0  0  0  0
   -2.0438    1.6319    1.6153 O   0  0  0  0  0  0  0  0  0  0  0  0
   -0.1913    0.4477    1.1273 N   0  0  0  0  0  0  0  0  0  0  0  0
    0.5926    1.5777    1.5343 C   0  0  0  0  0  0  0  0  0  0  0  0
    0.4462   -0.6527    0.7008 C   0  0  0  0  0  0  0  0  0  0  0  0
    1.7872   -0.7456    0.6373 N   0  0  0  0  0  0  0  0  0  0  0  0
  1  2  1  0
  2  3  1  0
  3  4  2  0
  3  5  1  0
  5  6  1  6
  6  7  1  0
  7  8  2  0
  7  9  1  0
  9 10  1  0
 10 11  1  0
 11 12  1  0
 12 13  1  0
 13 14  1  0
  5 15  1  0
 15 16  1  1
 15 17  1  0
 19 18  1  6
 19 20  1  0
 20 21  1  0
 21 22  1  0
 22 23  2  0
 23 24  1  0
 24 25  2  0
 19 26  1  0
 26 27  1  0
 27 28  2  0
 28 29  1  0
 29 30  2  0
 30 31  1  0
 31 32  2  0
 32 33  1  0
 33 34  1  0
 34 35  2  0
 35 36  1  0
 36 37  2  0
 37 38  1  0
 37 39  1  0
 39 40  2  0
 40 41  1  0
 32 42  1  0
 42 43  2  0
 42 44  1  0
 44 45  1  0
 44 46  1  0
 46 47  2  0
 25 21  1  0
 47 27  1  0
 46 30  1  0
 40 34  1  0
M  CHG  1  14   1
M  END

