
     RDKit          3D

 52 54  0  0  0  0  0  0  0  0999 V2000
   -4.8818    2.8781    1.3232 C   0  0  0  0  0  0  0  0  0  0  0  0
   -5.0983    2.5099   -0.1268 C   0  0  0  0  0  0  0  0  0  0  0  0
   -5.9094    3.6117   -0.7834 C   0  0  0  0  0  0  0  0  0  0  0  0
   -3.8424    2.1580   -0.8494 C   0  0  0  0  0  0  0  0  0  0  0  0
   -3.1598    1.0119   -0.1222 C   0  0  0  0  0  0  0  0  0  0  0  0
   -2.0173    0.5245   -0.8224 N   0  0  0  0  0  0  0  0  0  0  0  0
   -1.1427   -0.4271   -0.3686 C   0  0  0  0  0  0  0  0  0  0  0  0
   -1.3061   -0.9505    0.7429 O   0  0  0  0  0  0  0  0  0  0  0  0
    0.0963   -0.9029   -1.2021 C   0  0  2  0  0  0  0  0  0  0  0  0
    0.8975   -1.7488   -0.1495 C   0  0  0  0  0  0  0  0  0  0  0  0
    0.4534   -2.8162    0.5205 C   0  0  0  0  0  0  0  0  0  0  0  0
   -0.0384   -4.0680    0.1411 C   0  0  0  0  0  0  0  0  0  0  0  0
    0.2327   -5.2738    0.9394 N   0  0  0  0  0  0  0  0  0  0  0  0
   -0.7463   -4.3045   -0.9021 O   0  0  0  0  0  0  0  0  0  0  0  0
    0.8685    0.4331   -0.9894 N   0  0  0  0  0  0  0  0  0  0  0  0
    1.9396    0.6171   -0.1920 C   0  0  0  0  0  0  0  0  0  0  0  0
    2.4070   -0.3756    0.4683 O   0  0  0  0  0  0  0  0  0  0  0  0
    2.6127    1.9484   -0.0272 C   0  0  0  0  0  0  0  0  0  0  0  0
    3.5348    2.1065    1.0767 C   0  0  0  0  0  0  0  0  0  0  0  0
    4.6587    1.3380    1.2893 C   0  0  0  0  0  0  0  0  0  0  0  0
    4.7128    0.4105    2.3775 O   0  0  0  0  0  1  0  0  0  0  0  0
    5.7287    1.3198    0.5676 O   0  0  0  0  0  0  0  0  0  0  0  0
    5.7139   -1.9396   -0.9007 C   0  0  0  0  0  0  0  0  0  0  0  0
    4.5781   -0.7536   -1.2506 C   0  0  2  0  0  0  0  0  0  0  0  0
    5.1924    0.2655   -0.0645 C   0  0  0  0  0  0  0  0  0  0  0  0
    6.5646    0.4711   -0.4871 N   0  0  0  0  0  0  0  0  0  0  0  0
    7.0396    1.4072   -1.2770 N   0  0  0  0  0  0  0  0  0  0  0  0
    8.3623    1.2482   -1.4186 C   0  0  0  0  0  0  0  0  0  0  0  0
    8.6915    0.1680   -0.6794 N   0  0  0  0  0  0  0  0  0  0  0  0
    7.5932   -0.3015   -0.1142 N   0  0  0  0  0  0  0  0  0  0  0  0
    3.5011   -1.4110   -0.3010 N   0  0  0  0  0  0  0  0  0  0  0  0
    2.2507   -0.7421   -0.2284 C   0  0  0  0  0  0  0  0  0  0  0  0
    2.0474    0.3763   -0.9426 N   0  0  0  0  0  0  0  0  0  0  0  0
    0.9044    1.0850   -0.9461 C   0  0  0  0  0  0  0  0  0  0  0  0
   -0.1631    0.6626   -0.1696 C   0  0  0  0  0  0  0  0  0  0  0  0
   -1.3686    1.3344   -0.1189 C   0  0  0  0  0  0  0  0  0  0  0  0
   -2.3769    0.8393    0.6837 C   0  0  0  0  0  0  0  0  0  0  0  0
   -3.5893    1.4665    0.7695 O   0  0  0  0  0  0  0  0  0  0  0  0
   -4.8104    0.9372    0.4474 C   0  0  0  0  0  0  0  0  0  0  0  0
   -5.7587    0.8757    1.4758 C   0  0  0  0  0  0  0  0  0  0  0  0
   -7.0159    0.3565    1.2386 C   0  0  0  0  0  0  0  0  0  0  0  0
   -7.3607   -0.1111   -0.0162 C   0  0  0  0  0  0  0  0  0  0  0  0
   -8.6109   -0.6070   -0.1777 F   0  0  0  0  0  0  0  0  0  0  0  0
   -6.4269   -0.0484   -1.0210 C   0  0  0  0  0  0  0  0  0  0  0  0
   -5.1715    0.4716   -0.7780 C   0  0  0  0  0  0  0  0  0  0  0  0
   -4.2388    0.5364   -1.7738 F   0  0  0  0  0  0  0  0  0  0  0  0
   -2.1273   -0.3085    1.3986 C   0  0  0  0  0  0  0  0  0  0  0  0
   -3.0391   -0.7719    2.1355 O   0  0  0  0  0  0  0  0  0  0  0  0
   -0.9603   -0.9419    1.3372 N   0  0  0  0  0  0  0  0  0  0  0  0
   -0.6999   -2.1531    2.0929 C   0  0  0  0  0  0  0  0  0  0  0  0
    0.0521   -0.4875    0.5622 C   0  0  0  0  0  0  0  0  0  0  0  0
    1.2270   -1.1580    0.5240 N   0  0  0  0  0  0  0  0  0  0  0  0
  1  2  1  0
  2  3  1  0
  2  4  1  0
  4  5  1  0
  5  6  1  0
  6  7  1  0
  7  8  2  0
  7  9  1  0
  9 10  1  1
 10 11  1  0
 11 12  1  0
 12 13  1  0
 12 14  2  0
  9 15  1  0
 15 16  1  0
 16 17  2  0
 16 18  1  0
 18 19  1  0
 19 20  1  0
 20 21  1  0
 20 22  2  0
 24 23  1  1
 24 25  1  0
 25 26  1  0
 26 27  1  0
 27 28  2  0
 28 29  1  0
 29 30  2  0
 24 31  1  0
 31 32  1  0
 32 33  2  0
 33 34  1  0
 34 35  2  0
 35 36  1  0
 36 37  2  0
 37 38  1  0
 38 39  1  0
 39 40  2  0
 40 41  1  0
 41 42  2  0
 42 43  1  0
 42 44  1  0
 44 45  2  0
 45 46  1  0
 37 47  1  0
 47 48  2  0
 47 49  1  0
 49 50  1  0
 49 51  1  0
 51 52  2  0
 30 26  1  0
 52 32  1  0
 51 35  1  0
 45 39  1  0
M  RAD  1  21   2
M  END

