
     RDKit          3D

 49 53  0  0  0  0  0  0  0  0999 V2000
   -5.4601    1.1063    1.7225 C   0  0  0  0  0  0  0  0  0  0  0  0
   -4.1389    1.5338    1.2422 N   0  0  0  0  0  0  0  0  0  0  0  0
   -3.2661    0.5610    0.6870 C   0  0  0  0  0  0  0  0  0  0  0  0
   -3.5898   -0.5696    0.6103 O   0  0  0  0  0  0  0  0  0  0  0  0
   -1.8783    1.1750    0.2138 C   0  0  2  0  0  0  0  0  0  0  0  0
   -2.4322    1.6136   -1.2792 C   0  0  0  0  0  0  0  0  0  0  0  0
   -2.8690    0.3197   -1.8453 C   0  0  0  0  0  0  0  0  0  0  0  0
   -1.8949   -0.7043   -1.3458 C   0  0  0  0  0  0  0  0  0  0  0  0
   -1.2151   -0.1078   -0.3112 N   0  0  0  0  0  0  0  0  0  0  0  0
   -0.0177   -0.5299    0.2992 C   0  0  0  0  0  0  0  0  0  0  0  0
    0.5207    0.1122    1.2583 O   0  0  0  0  0  0  0  0  0  0  0  0
    0.6573   -1.7616   -0.1719 C   0  0  0  0  0  0  0  0  0  0  0  0
    1.9601   -2.0771    0.3889 C   0  0  0  0  0  0  0  0  0  0  0  0
    2.9794   -1.0611    0.1206 C   0  0  0  0  0  0  0  0  0  0  0  0
    3.1942   -0.0558    1.0112 C   0  0  0  0  0  0  0  0  0  0  0  0
    4.1404    0.8929    0.7689 C   0  0  0  0  0  0  0  0  0  0  0  0
    4.9026    0.8479   -0.3949 C   0  0  0  0  0  0  0  0  0  0  0  0
    4.6812   -0.1724   -1.2940 C   0  0  0  0  0  0  0  0  0  0  0  0
    3.7262   -1.1227   -1.0408 C   0  0  0  0  0  0  0  0  0  0  0  0
    4.0245   -2.9119    0.6015 C   0  0  0  0  0  0  0  0  0  0  0  0
    4.7046   -1.4086    0.9051 C   0  0  2  0  0  0  0  0  0  0  0  0
    5.3841   -1.9567    2.3365 C   0  0  0  0  0  0  0  0  0  0  0  0
    6.0556   -0.7428    2.7851 N   0  0  0  0  0  0  0  0  0  0  0  0
    7.2910   -0.3501    2.5179 N   0  0  0  0  0  0  0  0  0  0  0  0
    7.5591    0.8285    3.1090 C   0  0  0  0  0  0  0  0  0  0  0  0
    6.4407    1.1675    3.7630 N   0  0  0  0  0  0  0  0  0  0  0  0
    5.5526    0.2095    3.5540 N   0  0  0  0  0  0  0  0  0  0  0  0
    3.3970   -0.8997    1.6408 N   0  0  0  0  0  0  0  0  0  0  0  0
    2.2371   -0.9245    0.7749 C   0  0  0  0  0  0  0  0  0  0  0  0
    2.2920   -1.3353   -0.4975 N   0  0  0  0  0  0  0  0  0  0  0  0
    1.2488   -1.3768   -1.3373 C   0  0  0  0  0  0  0  0  0  0  0  0
    0.0236   -0.9630   -0.8491 C   0  0  0  0  0  0  0  0  0  0  0  0
   -1.1206   -0.9649   -1.6315 C   0  0  0  0  0  0  0  0  0  0  0  0
   -2.2885   -0.5324   -1.0448 C   0  0  0  0  0  0  0  0  0  0  0  0
   -3.4278   -0.5308   -1.8126 O   0  0  0  0  0  0  0  0  0  0  0  0
   -4.1852    0.5958   -2.1021 C   0  0  0  0  0  0  0  0  0  0  0  0
   -3.8850    1.8641   -1.6508 C   0  0  0  0  0  0  0  0  0  0  0  0
   -4.6774    2.9496   -1.9719 C   0  0  0  0  0  0  0  0  0  0  0  0
   -5.8057    2.8299   -2.7561 C   0  0  0  0  0  0  0  0  0  0  0  0
   -6.5866    3.8919   -3.0741 F   0  0  0  0  0  0  0  0  0  0  0  0
   -6.1079    1.5638   -3.2083 C   0  0  0  0  0  0  0  0  0  0  0  0
   -5.3143    0.4804   -2.8859 C   0  0  0  0  0  0  0  0  0  0  0  0
   -5.6241   -0.7791   -3.3419 F   0  0  0  0  0  0  0  0  0  0  0  0
   -2.3086   -0.1160    0.2692 C   0  0  0  0  0  0  0  0  0  0  0  0
   -3.4341    0.2671    0.7270 O   0  0  0  0  0  0  0  0  0  0  0  0
   -1.2105   -0.1198    1.0019 N   0  0  0  0  0  0  0  0  0  0  0  0
   -1.2605    0.3237    2.3821 C   0  0  0  0  0  0  0  0  0  0  0  0
   -0.0321   -0.5408    0.4593 C   0  0  0  0  0  0  0  0  0  0  0  0
    1.0580   -0.5183    1.2701 N   0  0  0  0  0  0  0  0  0  0  0  0
  1  2  1  0
  2  3  1  0
  3  4  2  0
  5  3  1  1
  5  6  1  0
  6  7  1  0
  7  8  1  0
  8  9  1  0
  9 10  1  0
 10 11  2  0
 10 12  1  0
 12 13  1  0
 13 14  1  0
 14 15  2  0
 15 16  1  0
 16 17  2  0
 17 18  1  0
 18 19  2  0
 21 20  1  6
 21 22  1  0
 22 23  1  0
 23 24  1  0
 24 25  2  0
 25 26  1  0
 26 27  2  0
 21 28  1  0
 28 29  1  0
 29 30  2  0
 30 31  1  0
 31 32  2  0
 32 33  1  0
 33 34  2  0
 34 35  1  0
 35 36  1  0
 36 37  2  0
 37 38  1  0
 38 39  2  0
 39 40  1  0
 39 41  1  0
 41 42  2  0
 42 43  1  0
 34 44  1  0
 44 45  2  0
 44 46  1  0
 46 47  1  0
 46 48  1  0
 48 49  2  0
  9  5  1  0
 19 14  1  0
 27 23  1  0
 49 29  1  0
 48 32  1  0
 42 36  1  0
M  END

