
     RDKit          3D

 51 54  0  0  0  0  0  0  0  0999 V2000
    5.7867    0.5101    1.7895 C   0  0  0  0  0  0  0  0  0  0  0  0
    5.7483    0.5160    0.2695 C   0  0  0  0  0  0  0  0  0  0  0  0
    4.5400   -0.5219   -0.1365 C   0  0  2  0  0  0  0  0  0  0  0  0
    4.7812   -0.2714   -1.7475 C   0  0  0  0  0  0  0  0  0  0  0  0
    3.3815    0.6069   -0.0411 C   0  0  0  0  0  0  0  0  0  0  0  0
    2.0940   -0.0417   -0.3689 C   0  0  0  0  0  0  0  0  0  0  0  0
    2.1064   -1.2658   -0.6274 O   0  0  0  0  0  0  0  0  0  0  0  0
    0.9113    0.7321   -0.3789 N   0  0  0  0  0  0  0  0  0  0  0  0
   -0.4105   -0.0214   -0.7344 C   0  0  1  0  0  0  0  0  0  0  0  0
   -0.4347   -0.8884    0.6543 C   0  0  0  0  0  0  0  0  0  0  0  0
   -1.6649   -1.7556    0.5533 C   0  0  0  0  0  0  0  0  0  0  0  0
   -2.5717   -1.8496   -0.4808 C   0  0  0  0  0  0  0  0  0  0  0  0
   -3.5050   -2.7513   -0.1248 N   0  0  0  0  0  0  0  0  0  0  0  0
   -3.2124   -3.2294    1.1051 C   0  0  0  0  0  0  0  0  0  0  0  0
   -2.1044   -2.6141    1.4858 N   0  0  0  0  0  0  0  0  0  0  0  0
   -1.4008    1.1280   -0.2115 C   0  0  0  0  0  0  0  0  0  0  0  0
   -0.9256    2.1514    0.2713 O   0  0  0  0  0  0  0  0  0  0  0  0
   -2.7722    0.8996   -0.3368 N   0  0  0  0  0  0  0  0  0  0  0  0
   -3.7800    1.7734    0.0479 C   0  0  0  0  0  0  0  0  0  0  0  0
   -3.8611    3.0894   -0.6032 C   0  0  0  0  0  0  0  0  0  0  0  0
   -2.7060    3.8036   -0.3848 O   0  0  0  0  0  0  0  0  0  0  0  0
    4.5148    0.7742    1.9663 C   0  0  0  0  0  0  0  0  0  0  0  0
    5.0901   -0.7622    1.7204 C   0  0  2  0  0  0  0  0  0  0  0  0
    6.4299   -0.2541    0.9036 C   0  0  0  0  0  0  0  0  0  0  0  0
    6.0187    0.4672   -0.2372 N   0  0  0  0  0  0  0  0  0  0  0  0
    5.7673    0.0240   -1.4744 N   0  0  0  0  0  0  0  0  0  0  0  0
    5.4028    1.0248   -2.2647 C   0  0  0  0  0  0  0  0  0  0  0  0
    5.4205    2.1383   -1.5166 N   0  0  0  0  0  0  0  0  0  0  0  0
    5.7942    1.7628   -0.3088 N   0  0  0  0  0  0  0  0  0  0  0  0
    4.2229   -0.9960    0.4233 N   0  0  0  0  0  0  0  0  0  0  0  0
    2.8107   -0.8948    0.6565 C   0  0  0  0  0  0  0  0  0  0  0  0
    2.3061   -0.6255    1.8746 N   0  0  0  0  0  0  0  0  0  0  0  0
    0.9953   -0.5213    2.1410 C   0  0  0  0  0  0  0  0  0  0  0  0
    0.0673   -0.6993    1.1043 C   0  0  0  0  0  0  0  0  0  0  0  0
   -1.2710   -0.6057    1.3119 C   0  0  0  0  0  0  0  0  0  0  0  0
   -2.1588   -0.7996    0.2043 C   0  0  0  0  0  0  0  0  0  0  0  0
   -3.4518   -0.6948    0.4861 O   0  0  0  0  0  0  0  0  0  0  0  0
   -4.5224    0.0492    0.2124 C   0  0  0  0  0  0  0  0  0  0  0  0
   -5.0448    0.7401    1.3446 C   0  0  0  0  0  0  0  0  0  0  0  0
   -6.1146    1.5309    1.2614 C   0  0  0  0  0  0  0  0  0  0  0  0
   -6.7905    1.7359    0.0751 C   0  0  0  0  0  0  0  0  0  0  0  0
   -7.8707    2.5541    0.0640 F   0  0  0  0  0  0  0  0  0  0  0  0
   -6.3276    1.0934   -1.0418 C   0  0  0  0  0  0  0  0  0  0  0  0
   -5.2050    0.2678   -0.9364 C   0  0  0  0  0  0  0  0  0  0  0  0
   -4.8587   -0.3299   -2.0831 F   0  0  0  0  0  0  0  0  0  0  0  0
   -1.5988   -1.0704   -1.0053 C   0  0  0  0  0  0  0  0  0  0  0  0
   -2.2520   -1.2677   -2.0657 O   0  0  0  0  0  0  0  0  0  0  0  0
   -0.2413   -1.1558   -1.1722 N   0  0  0  0  0  0  0  0  0  0  0  0
    0.3483   -1.4456   -2.4728 C   0  0  0  0  0  0  0  0  0  0  0  0
    0.5960   -0.9746   -0.1385 C   0  0  0  0  0  0  0  0  0  0  0  0
    1.9233   -1.0654   -0.3365 N   0  0  0  0  0  0  0  0  0  0  0  0
  1  2  1  0
  2  3  1  0
  3  4  1  6
  3  5  1  0
  5  6  1  0
  6  7  2  0
  6  8  1  0
  8  9  1  0
  9 10  1  1
 10 11  1  0
 11 12  2  0
 12 13  1  0
 13 14  1  0
 14 15  2  0
  9 16  1  0
 16 17  2  0
 16 18  1  0
 18 19  1  0
 19 20  1  0
 20 21  1  0
 23 22  1  1
 23 24  1  0
 24 25  1  0
 25 26  1  0
 26 27  2  0
 27 28  1  0
 28 29  2  0
 23 30  1  0
 30 31  1  0
 31 32  2  0
 32 33  1  0
 33 34  2  0
 34 35  1  0
 35 36  2  0
 36 37  1  0
 37 38  1  0
 38 39  2  0
 39 40  1  0
 40 41  2  0
 41 42  1  0
 41 43  1  0
 43 44  2  0
 44 45  1  0
 36 46  1  0
 46 47  2  0
 46 48  1  0
 48 49  1  0
 48 50  1  0
 50 51  2  0
 15 11  1  0
 29 25  1  0
 51 31  1  0
 50 34  1  0
 44 38  1  0
M  END

