
     RDKit          3D

 51 53  0  0  0  0  0  0  0  0999 V2000
   -2.1309   -5.2986   -1.2235 C   0  0  0  0  0  0  0  0  0  0  0  0
   -3.2445   -3.9752   -0.7793 S   0  0  0  0  0  0  0  0  0  0  0  0
   -2.4748   -2.3802   -1.0045 C   0  0  0  0  0  0  0  0  0  0  0  0
   -1.3071   -2.1745   -0.0295 C   0  0  0  0  0  0  0  0  0  0  0  0
   -0.7548   -0.6810   -0.3994 C   0  0  2  0  0  0  0  0  0  0  0  0
    0.3685   -0.7185    0.6744 N   0  0  0  0  0  0  0  0  0  0  0  0
    1.5159    0.0576    0.4698 C   0  0  0  0  0  0  0  0  0  0  0  0
    1.6874    0.7896   -0.5458 O   0  0  0  0  0  0  0  0  0  0  0  0
    2.5563   -0.0295    1.5485 C   0  0  0  0  0  0  0  0  0  0  0  0
    3.7623    0.8387    1.1768 C   0  0  0  0  0  0  0  0  0  0  0  0
    4.2704    0.2510   -0.1383 C   0  0  0  0  0  0  0  0  0  0  0  0
    5.4364    1.0248   -0.5673 C   0  0  0  0  0  0  0  0  0  0  0  0
    6.0751    0.6608   -1.7416 O   0  0  0  0  0  1  0  0  0  0  0  0
    5.8959    2.0114    0.0771 O   0  0  0  0  0  0  0  0  0  0  0  0
   -1.8307    0.0793    0.4625 C   0  0  0  0  0  0  0  0  0  0  0  0
   -1.6131    0.4660    1.6034 O   0  0  0  0  0  0  0  0  0  0  0  0
   -3.0624    0.3000   -0.1293 N   0  0  0  0  0  0  0  0  0  0  0  0
   -4.2501    0.8816    0.1591 C   0  0  0  0  0  0  0  0  0  0  0  0
   -4.2880    2.4573    0.3816 C   0  0  1  0  0  0  0  0  0  0  0  0
   -2.8226    2.6388    1.0345 C   0  0  0  0  0  0  0  0  0  0  0  0
   -3.7893    2.8006   -1.0292 O   0  0  0  0  0  0  0  0  0  0  0  0
    4.4055   -0.7308    1.3238 C   0  0  0  0  0  0  0  0  0  0  0  0
    4.9340   -0.0639   -0.0824 C   0  0  2  0  0  0  0  0  0  0  0  0
    5.7902    1.1136    0.6880 C   0  0  0  0  0  0  0  0  0  0  0  0
    6.7337    0.3526    1.4865 N   0  0  0  0  0  0  0  0  0  0  0  0
    6.5006   -0.0530    2.7118 N   0  0  0  0  0  0  0  0  0  0  0  0
    7.5759   -0.7300    3.1656 C   0  0  0  0  0  0  0  0  0  0  0  0
    8.4757   -0.7113    2.1430 N   0  0  0  0  0  0  0  0  0  0  0  0
    7.9625   -0.0578    1.1347 N   0  0  0  0  0  0  0  0  0  0  0  0
    3.6967    0.8572   -0.3262 N   0  0  0  0  0  0  0  0  0  0  0  0
    2.4345    0.2937   -0.4630 C   0  0  0  0  0  0  0  0  0  0  0  0
    2.2820   -1.0394   -0.3854 N   0  0  0  0  0  0  0  0  0  0  0  0
    1.0503   -1.6164   -0.5169 C   0  0  0  0  0  0  0  0  0  0  0  0
   -0.0419   -0.8173   -0.7310 C   0  0  0  0  0  0  0  0  0  0  0  0
   -1.3285   -1.2967   -0.8776 C   0  0  0  0  0  0  0  0  0  0  0  0
   -2.4058   -0.4472   -1.0934 C   0  0  0  0  0  0  0  0  0  0  0  0
   -3.6903   -0.9121   -1.2408 O   0  0  0  0  0  0  0  0  0  0  0  0
   -4.7427   -0.5607   -0.4054 C   0  0  0  0  0  0  0  0  0  0  0  0
   -4.5440    0.2937    0.6387 C   0  0  0  0  0  0  0  0  0  0  0  0
   -5.5390    0.6597    1.4724 C   0  0  0  0  0  0  0  0  0  0  0  0
   -6.8103    0.1756    1.2955 C   0  0  0  0  0  0  0  0  0  0  0  0
   -7.8190    0.5534    2.1495 F   0  0  0  0  0  0  0  0  0  0  0  0
   -7.0581   -0.6964    0.2458 C   0  0  0  0  0  0  0  0  0  0  0  0
   -6.0100   -1.0538   -0.5957 C   0  0  0  0  0  0  0  0  0  0  0  0
   -6.2489   -1.9140   -1.6330 F   0  0  0  0  0  0  0  0  0  0  0  0
   -2.2115    0.9171   -1.1674 C   0  0  0  0  0  0  0  0  0  0  0  0
   -3.1764    1.7172   -1.3637 O   0  0  0  0  0  0  0  0  0  0  0  0
   -0.9490    1.3526   -1.0210 N   0  0  0  0  0  0  0  0  0  0  0  0
   -0.7467    2.8057   -1.1005 C   0  0  0  0  0  0  0  0  0  0  0  0
    0.1162    0.5508   -0.8105 C   0  0  0  0  0  0  0  0  0  0  0  0
    1.3643    1.0579   -0.6714 N   0  0  0  0  0  0  0  0  0  0  0  0
  1  2  1  0
  2  3  1  0
  3  4  1  0
  5  4  1  1
  5  6  1  0
  6  7  1  0
  7  8  2  0
  7  9  1  0
  9 10  1  0
 10 11  1  0
 11 12  1  0
 12 13  1  0
 12 14  2  0
  5 15  1  0
 15 16  2  0
 15 17  1  0
 17 18  1  0
 18 19  1  0
 19 20  1  1
 19 21  1  0
 23 22  1  1
 23 24  1  0
 24 25  1  0
 25 26  1  0
 26 27  2  0
 27 28  1  0
 28 29  2  0
 23 30  1  0
 30 31  1  0
 31 32  2  0
 32 33  1  0
 33 34  2  0
 34 35  1  0
 35 36  2  0
 36 37  1  0
 37 38  1  0
 38 39  2  0
 39 40  1  0
 40 41  2  0
 41 42  1  0
 41 43  1  0
 43 44  2  0
 44 45  1  0
 36 46  1  0
 46 47  2  0
 46 48  1  0
 48 49  1  0
 48 50  1  0
 50 51  2  0
 29 25  1  0
 51 31  1  0
 50 34  1  0
 44 38  1  0
M  RAD  1  13   2
M  END

