
     RDKit          3D

 53 55  0  0  0  0  0  0  0  0999 V2000
   -1.3787    4.9432   -0.3305 C   0  0  0  0  0  0  0  0  0  0  0  0
   -2.5520    4.0065   -0.2488 C   0  0  0  0  0  0  0  0  0  0  0  0
   -3.8274    4.7326   -0.6409 C   0  0  0  0  0  0  0  0  0  0  0  0
   -2.7524    3.4038    1.1177 C   0  0  0  0  0  0  0  0  0  0  0  0
   -1.5171    2.6031    1.5270 C   0  0  0  0  0  0  0  0  0  0  0  0
   -1.2649    1.5207    0.5290 C   0  0  0  0  0  0  0  0  0  0  0  0
   -1.9946    1.4149   -0.4674 O   0  0  0  0  0  0  0  0  0  0  0  0
   -0.1869    0.6225    0.7360 N   0  0  0  0  0  0  0  0  0  0  0  0
   -0.1169   -0.4503   -0.4799 C   0  0  1  0  0  0  0  0  0  0  0  0
    1.5358   -0.5166   -0.4542 C   0  0  0  0  0  0  0  0  0  0  0  0
    1.9967   -0.9711    0.8240 C   0  0  0  0  0  0  0  0  0  0  0  0
    3.4288   -1.0467    1.0534 C   0  0  0  0  0  0  0  0  0  0  0  0
    4.1040    0.1816    0.9767 N   0  0  0  0  0  0  0  0  0  0  0  0
    4.2488    0.9946   -0.1366 C   0  0  0  0  0  0  0  0  0  0  0  0
    4.9737    2.2580   -0.0769 N   0  0  0  0  0  0  0  0  0  0  0  0
    3.7447    0.6630   -1.2626 N   0  0  0  0  0  4  0  0  0  0  0  0
   -0.3730   -1.7223    0.4509 C   0  0  0  0  0  0  0  0  0  0  0  0
   -0.1451   -1.7789    1.6114 O   0  0  0  0  0  0  0  0  0  0  0  0
   -0.9168   -2.7845   -0.2858 N   0  0  0  0  0  0  0  0  0  0  0  0
   -1.2099   -4.0198    0.4056 C   0  0  0  0  0  0  0  0  0  0  0  0
   -1.8330   -4.9367   -0.6615 C   0  0  0  0  0  0  0  0  0  0  0  0
   -3.1050   -4.2090   -1.1548 C   0  0  0  0  0  0  0  0  0  0  0  0
   -0.8587   -4.9088   -1.8430 C   0  0  0  0  0  0  0  0  0  0  0  0
   -5.8955   -0.0476   -2.6550 C   0  0  0  0  0  0  0  0  0  0  0  0
   -4.6081   -1.0061   -2.2378 C   0  0  2  0  0  0  0  0  0  0  0  0
   -5.2436   -1.4821   -0.7934 C   0  0  0  0  0  0  0  0  0  0  0  0
   -5.4640   -0.3174    0.0032 N   0  0  0  0  0  0  0  0  0  0  0  0
   -4.7314    0.3284    0.8557 N   0  0  0  0  0  0  0  0  0  0  0  0
   -5.4308    1.3714    1.3278 C   0  0  0  0  0  0  0  0  0  0  0  0
   -6.6369    1.3670    0.7449 N   0  0  0  0  0  0  0  0  0  0  0  0
   -6.6295    0.3331   -0.0527 N   0  0  0  0  0  0  0  0  0  0  0  0
   -3.7732    0.1834   -1.6262 N   0  0  0  0  0  0  0  0  0  0  0  0
   -2.4958   -0.2697   -1.1185 C   0  0  0  0  0  0  0  0  0  0  0  0
   -2.1022   -1.5449   -1.1760 N   0  0  0  0  0  0  0  0  0  0  0  0
   -0.9365   -2.0231   -0.7249 C   0  0  0  0  0  0  0  0  0  0  0  0
   -0.0495   -1.1307   -0.1450 C   0  0  0  0  0  0  0  0  0  0  0  0
    1.1749   -1.5377    0.3467 C   0  0  0  0  0  0  0  0  0  0  0  0
    1.9905   -0.5771    0.9062 C   0  0  0  0  0  0  0  0  0  0  0  0
    3.2170   -0.9699    1.4016 O   0  0  0  0  0  0  0  0  0  0  0  0
    4.4147   -0.4361    0.8948 C   0  0  0  0  0  0  0  0  0  0  0  0
    5.2427    0.2407    1.7719 C   0  0  0  0  0  0  0  0  0  0  0  0
    6.4352    0.7921    1.3470 C   0  0  0  0  0  0  0  0  0  0  0  0
    6.7756    0.6463    0.0160 C   0  0  0  0  0  0  0  0  0  0  0  0
    7.9516    1.1868   -0.4166 F   0  0  0  0  0  0  0  0  0  0  0  0
    5.9427   -0.0301   -0.8492 C   0  0  0  0  0  0  0  0  0  0  0  0
    4.7535   -0.5822   -0.4340 C   0  0  0  0  0  0  0  0  0  0  0  0
    3.9180   -1.2548   -1.2779 F   0  0  0  0  0  0  0  0  0  0  0  0
    1.5931    0.7437    0.9705 C   0  0  0  0  0  0  0  0  0  0  0  0
    2.3298    1.6244    1.4783 O   0  0  0  0  0  0  0  0  0  0  0  0
    0.4011    1.1140    0.4868 N   0  0  0  0  0  0  0  0  0  0  0  0
   -0.0683    2.4933    0.5287 C   0  0  0  0  0  0  0  0  0  0  0  0
   -0.4387    0.1890   -0.0772 C   0  0  0  0  0  0  0  0  0  0  0  0
   -1.6363    0.5958   -0.5566 N   0  0  0  0  0  0  0  0  0  0  0  0
  1  2  1  0
  2  3  1  0
  2  4  1  0
  4  5  1  0
  5  6  1  0
  6  7  2  0
  6  8  1  0
  8  9  1  0
  9 10  1  1
 10 11  1  0
 11 12  1  0
 12 13  1  0
 13 14  1  0
 14 15  1  0
 14 16  2  0
  9 17  1  0
 17 18  2  0
 17 19  1  0
 19 20  1  0
 20 21  1  0
 21 22  1  0
 21 23  1  0
 25 24  1  6
 25 26  1  0
 26 27  1  0
 27 28  1  0
 28 29  2  0
 29 30  1  0
 30 31  2  0
 25 32  1  0
 32 33  1  0
 33 34  2  0
 34 35  1  0
 35 36  2  0
 36 37  1  0
 37 38  2  0
 38 39  1  0
 39 40  1  0
 40 41  2  0
 41 42  1  0
 42 43  2  0
 43 44  1  0
 43 45  1  0
 45 46  2  0
 46 47  1  0
 38 48  1  0
 48 49  2  0
 48 50  1  0
 50 51  1  0
 50 52  1  0
 52 53  2  0
 31 27  1  0
 53 33  1  0
 52 36  1  0
 46 40  1  0
M  CHG  1  16   1
M  END

