
     RDKit          3D

 55 58  0  0  0  0  0  0  0  0999 V2000
   -0.9475    1.3494   -2.7455 C   0  0  0  0  0  0  0  0  0  0  0  0
   -0.6392    0.4981   -1.5889 C   0  0  0  0  0  0  0  0  0  0  0  0
   -1.1565   -0.9971   -1.8662 C   0  0  2  0  0  0  0  0  0  0  0  0
   -2.7077   -0.6600   -2.0591 C   0  0  0  0  0  0  0  0  0  0  0  0
   -1.2468   -1.5350   -0.2601 C   0  0  2  0  0  0  0  0  0  0  0  0
   -2.2466   -0.4818    0.2641 N   0  0  0  0  0  0  0  0  0  0  0  0
   -3.5894   -0.8019    0.4052 C   0  0  0  0  0  0  0  0  0  0  0  0
   -3.8439   -1.9877    0.0681 O   0  0  0  0  0  0  0  0  0  0  0  0
   -4.5743    0.1552    0.8938 C   0  0  0  0  0  0  0  0  0  0  0  0
   -5.9804   -0.3382    0.9431 C   0  0  0  0  0  0  0  0  0  0  0  0
   -6.5391   -0.7629   -0.3859 C   0  0  0  0  0  0  0  0  0  0  0  0
   -6.4974    0.4596   -1.3185 C   0  0  0  0  0  0  0  0  0  0  0  0
   -8.0285   -1.0461   -0.2161 C   0  0  0  0  0  0  0  0  0  0  0  0
    0.0712   -0.9016    0.2919 C   0  0  0  0  0  0  0  0  0  0  0  0
    0.1279    0.1341    0.9355 O   0  0  0  0  0  0  0  0  0  0  0  0
    1.2794   -1.5716    0.0285 N   0  0  0  0  0  0  0  0  0  0  0  0
    2.5857   -1.1327    0.4548 C   0  0  0  0  0  0  0  0  0  0  0  0
    2.8915    0.2312   -0.1277 C   0  0  0  0  0  0  0  0  0  0  0  0
    4.2003    0.7610    0.2424 C   0  0  0  0  0  0  0  0  0  0  0  0
    4.4562    1.5491    1.3607 C   0  0  0  0  0  0  0  0  0  0  0  0
    5.7437    1.9938    1.6053 C   0  0  0  0  0  0  0  0  0  0  0  0
    6.7874    1.6585    0.7391 C   0  0  0  0  0  0  0  0  0  0  0  0
    8.0498    2.1133    1.0069 O   0  0  0  0  0  0  0  0  0  0  0  0
    6.5414    0.8748   -0.3755 C   0  0  0  0  0  0  0  0  0  0  0  0
    5.2630    0.4385   -0.6099 C   0  0  0  0  0  0  0  0  0  0  0  0
    4.3223   -1.0885    1.7526 C   0  0  0  0  0  0  0  0  0  0  0  0
    4.8416   -1.6782    0.2931 C   0  0  2  0  0  0  0  0  0  0  0  0
    4.3474   -0.3421   -0.5437 C   0  0  0  0  0  0  0  0  0  0  0  0
    5.1169    0.7143    0.0839 N   0  0  0  0  0  0  0  0  0  0  0  0
    4.6964    1.4046    1.1293 N   0  0  0  0  0  0  0  0  0  0  0  0
    5.6954    2.2908    1.4127 C   0  0  0  0  0  0  0  0  0  0  0  0
    6.7039    2.1240    0.5362 N   0  0  0  0  0  0  0  0  0  0  0  0
    6.3140    1.1458   -0.2669 N   0  0  0  0  0  0  0  0  0  0  0  0
    3.5409   -2.5163    0.0281 N   0  0  0  0  0  0  0  0  0  0  0  0
    2.3144   -1.8490    0.0147 C   0  0  0  0  0  0  0  0  0  0  0  0
    2.1774   -0.5198    0.2171 N   0  0  0  0  0  0  0  0  0  0  0  0
    0.9478    0.0606    0.1893 C   0  0  0  0  0  0  0  0  0  0  0  0
   -0.1875   -0.6870   -0.0451 C   0  0  0  0  0  0  0  0  0  0  0  0
   -1.4572   -0.1456   -0.0833 C   0  0  0  0  0  0  0  0  0  0  0  0
   -2.5794   -0.9115   -0.3193 C   0  0  0  0  0  0  0  0  0  0  0  0
   -3.8670   -0.4432   -0.3711 O   0  0  0  0  0  0  0  0  0  0  0  0
   -4.2181    0.8850   -0.1902 C   0  0  0  0  0  0  0  0  0  0  0  0
   -4.8662    1.5575   -1.2053 C   0  0  0  0  0  0  0  0  0  0  0  0
   -5.2358    2.8857   -1.0676 C   0  0  0  0  0  0  0  0  0  0  0  0
   -4.9783    3.6025    0.0813 C   0  0  0  0  0  0  0  0  0  0  0  0
   -5.3429    4.9119    0.2161 F   0  0  0  0  0  0  0  0  0  0  0  0
   -4.3303    2.9273    1.0940 C   0  0  0  0  0  0  0  0  0  0  0  0
   -3.9556    1.5934    0.9641 C   0  0  0  0  0  0  0  0  0  0  0  0
   -3.3182    0.9254    1.9573 F   0  0  0  0  0  0  0  0  0  0  0  0
   -2.3596   -2.2580   -0.5163 C   0  0  0  0  0  0  0  0  0  0  0  0
   -3.3876   -2.9832   -0.7363 O   0  0  0  0  0  0  0  0  0  0  0  0
   -1.1284   -2.7945   -0.4811 N   0  0  0  0  0  0  0  0  0  0  0  0
   -0.9666   -4.2111   -0.6952 C   0  0  0  0  0  0  0  0  0  0  0  0
   -0.0396   -2.0484   -0.2516 C   0  0  0  0  0  0  0  0  0  0  0  0
    1.1999   -2.5525   -0.2104 N   0  0  0  0  0  0  0  0  0  0  0  0
  1  2  1  0
  2  3  1  0
  3  4  1  1
  3  5  1  0
  5  6  1  1
  6  7  1  0
  7  8  2  0
  7  9  1  0
  9 10  1  0
 10 11  1  0
 11 12  1  0
 11 13  1  0
  5 14  1  0
 14 15  2  0
 14 16  1  0
 16 17  1  0
 17 18  1  0
 18 19  1  0
 19 20  2  0
 20 21  1  0
 21 22  2  0
 22 23  1  0
 22 24  1  0
 24 25  2  0
 27 26  1  1
 27 28  1  0
 28 29  1  0
 29 30  1  0
 30 31  2  0
 31 32  1  0
 32 33  2  0
 27 34  1  0
 34 35  1  0
 35 36  2  0
 36 37  1  0
 37 38  2  0
 38 39  1  0
 39 40  2  0
 40 41  1  0
 41 42  1  0
 42 43  2  0
 43 44  1  0
 44 45  2  0
 45 46  1  0
 45 47  1  0
 47 48  2  0
 48 49  1  0
 40 50  1  0
 50 51  2  0
 50 52  1  0
 52 53  1  0
 52 54  1  0
 54 55  2  0
 25 19  1  0
 33 29  1  0
 55 35  1  0
 54 38  1  0
 48 42  1  0
M  END

