
     RDKit          3D

 45 49  0  0  0  0  0  0  0  0999 V2000
    4.8742   -1.7890    0.4909 C   0  0  0  0  0  0  0  0  0  0  0  0
    5.2702   -1.0750   -0.9199 C   0  0  2  0  0  0  0  0  0  0  0  0
    4.9658    0.4392   -0.4221 C   0  0  0  0  0  0  0  0  0  0  0  0
    5.8302    0.7031    0.6947 N   0  0  0  0  0  0  0  0  0  0  0  0
    5.4663    0.4437    1.9413 N   0  0  0  0  0  0  0  0  0  0  0  0
    6.4398    0.7750    2.8036 C   0  0  0  0  0  0  0  0  0  0  0  0
    7.4412    1.2602    2.0205 N   0  0  0  0  0  0  0  0  0  0  0  0
    7.0463    1.2047    0.7571 N   0  0  0  0  0  0  0  0  0  0  0  0
    3.9007   -1.2687   -1.6026 N   0  0  0  0  0  0  0  0  0  0  0  0
    2.7343   -0.7573   -1.0449 C   0  0  0  0  0  0  0  0  0  0  0  0
    2.6511   -0.0625    0.1035 N   0  0  0  0  0  0  0  0  0  0  0  0
    1.4819    0.4002    0.5784 C   0  0  0  0  0  0  0  0  0  0  0  0
    0.2756    0.1903   -0.0890 C   0  0  0  0  0  0  0  0  0  0  0  0
   -0.9130    0.6540    0.3850 C   0  0  0  0  0  0  0  0  0  0  0  0
   -2.1310    0.4098   -0.3410 C   0  0  0  0  0  0  0  0  0  0  0  0
   -3.2631    0.8656    0.1333 O   0  0  0  0  0  0  0  0  0  0  0  0
   -4.4771    0.6106    0.6157 C   0  0  0  0  0  0  0  0  0  0  0  0
   -4.6792    1.0216    1.9792 C   0  0  0  0  0  0  0  0  0  0  0  0
   -5.8478    0.8366    2.6116 C   0  0  0  0  0  0  0  0  0  0  0  0
   -6.9050    0.2379    1.9629 C   0  0  0  0  0  0  0  0  0  0  0  0
   -8.0700    0.0556    2.6022 F   0  0  0  0  0  0  0  0  0  0  0  0
   -6.7714   -0.1746    0.6611 C   0  0  0  0  0  0  0  0  0  0  0  0
   -5.5618    0.0226    0.0210 C   0  0  0  0  0  0  0  0  0  0  0  0
   -5.4677   -0.3759   -1.2889 F   0  0  0  0  0  0  0  0  0  0  0  0
   -1.9538   -0.2954   -1.4853 C   0  0  0  0  0  0  0  0  0  0  0  0
   -2.8993   -0.5942   -2.2407 O   0  0  0  0  0  0  0  0  0  0  0  0
   -0.7458   -0.7518   -1.9409 N   0  0  0  0  0  0  0  0  0  0  0  0
   -0.6564   -1.4994   -3.1779 C   0  0  0  0  0  0  0  0  0  0  0  0
    0.3857   -0.5234   -1.2622 C   0  0  0  0  0  0  0  0  0  0  0  0
    1.5791   -0.9633   -1.6925 N   0  0  0  0  0  0  0  0  0  0  0  0
   -1.7708   -1.4784   -0.9233 O   0  0  0  0  0  1  0  0  0  0  0  0
   -2.0863   -1.0522    0.3080 C   0  0  0  0  0  0  0  0  0  0  0  0
   -2.9288   -1.6251    1.0161 O   0  0  0  0  0  0  0  0  0  0  0  0
   -1.4027    0.2129    0.9392 C   0  0  2  0  0  0  0  0  0  0  0  0
   -2.6092    1.2344    0.5249 C   0  0  0  0  0  0  0  0  0  0  0  0
   -1.8250    2.3797   -0.0628 C   0  0  0  0  0  0  0  0  0  0  0  0
   -1.0910    1.4997   -1.0852 C   0  0  0  0  0  0  0  0  0  0  0  0
   -0.4873    0.5503   -0.2550 N   0  0  0  0  0  0  0  0  0  0  0  0
    0.7808   -0.0412   -0.4464 C   0  0  0  0  0  0  0  0  0  0  0  0
    1.5112    0.2275   -1.3965 O   0  0  0  0  0  0  0  0  0  0  0  0
    1.2769   -1.0969    0.6149 C   0  0  2  0  0  0  0  0  0  0  0  0
    1.8843   -0.0209    1.6700 C   0  0  0  0  0  0  0  0  0  0  0  0
    2.7702    0.8096    0.8133 C   0  0  0  0  0  0  0  0  0  0  0  0
    3.3289   -0.1911   -0.1476 C   0  0  0  0  0  0  0  0  0  0  0  0
    2.6489   -1.4083   -0.0081 N   0  0  0  0  0  0  0  0  0  0  0  0
  2  1  1  1
  2  3  1  0
  3  4  1  0
  4  5  1  0
  5  6  2  0
  6  7  1  0
  7  8  2  0
  2  9  1  0
  9 10  1  0
 10 11  2  0
 11 12  1  0
 12 13  2  0
 13 14  1  0
 14 15  2  0
 15 16  1  0
 16 17  1  0
 17 18  2  0
 18 19  1  0
 19 20  2  0
 20 21  1  0
 20 22  1  0
 22 23  2  0
 23 24  1  0
 15 25  1  0
 25 26  2  0
 25 27  1  0
 27 28  1  0
 27 29  1  0
 29 30  2  0
 31 32  1  0
 32 33  2  0
 34 32  1  6
 34 35  1  0
 35 36  1  0
 36 37  1  0
 37 38  1  0
 38 39  1  0
 39 40  2  0
 41 39  1  6
 41 42  1  0
 42 43  1  0
 43 44  1  0
 44 45  1  0
  8  4  1  0
 30 10  1  0
 38 34  1  0
 45 41  1  0
 29 13  1  0
 23 17  1  0
M  RAD  1  31   2
M  END

