
     RDKit          3D

 53 56  0  0  0  0  0  0  0  0999 V2000
    5.7764    0.6352    2.4749 C   0  0  0  0  0  0  0  0  0  0  0  0
    4.2177    0.1662    2.2147 C   0  0  2  0  0  0  0  0  0  0  0  0
    4.6313   -1.1869    1.3851 C   0  0  0  0  0  0  0  0  0  0  0  0
    5.3862   -0.8172    0.2440 N   0  0  0  0  0  0  0  0  0  0  0  0
    6.7129   -0.7044    0.2490 N   0  0  0  0  0  0  0  0  0  0  0  0
    7.1491   -0.3473   -0.9475 C   0  0  0  0  0  0  0  0  0  0  0  0
    6.0719   -0.2276   -1.7427 N   0  0  0  0  0  0  0  0  0  0  0  0
    5.0234   -0.5183   -0.9922 N   0  0  0  0  0  0  0  0  0  0  0  0
    4.0374    1.0601    0.9381 N   0  0  0  0  0  0  0  0  0  0  0  0
    2.7297    0.9060    0.4049 C   0  0  0  0  0  0  0  0  0  0  0  0
    2.4046    1.6119   -0.7060 N   0  0  0  0  0  0  0  0  0  0  0  0
    1.2017    1.5457   -1.2959 C   0  0  0  0  0  0  0  0  0  0  0  0
    0.2494    0.7110   -0.7346 C   0  0  0  0  0  0  0  0  0  0  0  0
   -1.0176    0.5678   -1.2593 C   0  0  0  0  0  0  0  0  0  0  0  0
   -1.9589   -0.2658   -0.6933 C   0  0  0  0  0  0  0  0  0  0  0  0
   -3.1986   -0.3362   -1.2984 O   0  0  0  0  0  0  0  0  0  0  0  0
   -4.3840   -0.0087   -0.6863 C   0  0  0  0  0  0  0  0  0  0  0  0
   -4.4946    0.4341    0.6138 C   0  0  0  0  0  0  0  0  0  0  0  0
   -5.6868    0.7557    1.2059 C   0  0  0  0  0  0  0  0  0  0  0  0
   -6.8332    0.6232    0.4432 C   0  0  0  0  0  0  0  0  0  0  0  0
   -8.0028    0.9509    1.0606 F   0  0  0  0  0  0  0  0  0  0  0  0
   -6.7884    0.1836   -0.8684 C   0  0  0  0  0  0  0  0  0  0  0  0
   -5.5473   -0.1299   -1.4206 C   0  0  0  0  0  0  0  0  0  0  0  0
   -5.5570   -0.5545   -2.7042 F   0  0  0  0  0  0  0  0  0  0  0  0
   -1.6060   -0.9678    0.4281 C   0  0  0  0  0  0  0  0  0  0  0  0
   -2.4483   -1.7320    0.9587 O   0  0  0  0  0  0  0  0  0  0  0  0
   -0.3746   -0.8436    0.9579 N   0  0  0  0  0  0  0  0  0  0  0  0
   -0.0201   -1.5962    2.1466 C   0  0  0  0  0  0  0  0  0  0  0  0
    0.5492   -0.0321    0.4109 C   0  0  0  0  0  0  0  0  0  0  0  0
    1.7773    0.1170    0.9061 N   0  0  0  0  0  0  0  0  0  0  0  0
    4.1388    1.0398   -0.5031 O   0  0  0  0  0  1  0  0  0  0  0  0
    5.2799    0.3850   -0.0729 C   0  0  0  0  0  0  0  0  0  0  0  0
    6.4124    0.8818   -0.2256 O   0  0  0  0  0  0  0  0  0  0  0  0
    5.1876   -0.9490    0.5937 C   0  0  0  0  0  0  0  0  0  0  0  0
    3.7324   -1.3527    0.6803 C   0  0  0  0  0  0  0  0  0  0  0  0
    3.1740   -1.4276   -0.7324 C   0  0  0  0  0  0  0  0  0  0  0  0
    1.7657   -1.8200   -0.5960 N   0  0  0  0  0  0  0  0  0  0  0  0
    0.9301   -0.9930    0.1250 C   0  0  0  0  0  0  0  0  0  0  0  0
    1.3448    0.0378    0.6377 O   0  0  0  0  0  0  0  0  0  0  0  0
   -0.5915   -1.2832    0.3534 C   0  0  2  0  0  0  0  0  0  0  0  0
   -1.1849   -0.7338   -1.0828 C   0  0  0  0  0  0  0  0  0  0  0  0
   -2.6324   -1.0099   -0.8814 C   0  0  0  0  0  0  0  0  0  0  0  0
   -3.4139   -0.0401   -0.3183 C   0  0  0  0  0  0  0  0  0  0  0  0
   -4.7803   -0.2210   -0.0948 C   0  0  0  0  0  0  0  0  0  0  0  0
   -5.3157   -1.4212   -0.4651 C   0  0  0  0  0  0  0  0  0  0  0  0
   -4.5773   -2.4354   -1.0369 C   0  0  0  0  0  0  0  0  0  0  0  0
   -3.2326   -2.2007   -1.2338 C   0  0  0  0  0  0  0  0  0  0  0  0
   -0.9688   -0.0246    1.1778 N   0  0  0  0  0  0  0  0  0  0  0  0
   -0.9048    1.2458    0.6535 C   0  0  0  0  0  0  0  0  0  0  0  0
   -0.5345    1.4169   -0.5250 O   0  0  0  0  0  0  0  0  0  0  0  0
   -1.2680    2.4273    1.4621 C   0  0  0  0  0  0  0  0  0  0  0  0
   -1.1080    3.6984    0.6525 C   0  0  0  0  0  0  0  0  0  0  0  0
   -1.4530    4.7793    1.4324 O   0  0  0  0  0  0  0  0  0  0  0  0
  2  1  1  1
  2  3  1  0
  3  4  1  0
  4  5  1  0
  5  6  2  0
  6  7  1  0
  7  8  2  0
  2  9  1  0
  9 10  1  0
 10 11  2  0
 11 12  1  0
 12 13  2  0
 13 14  1  0
 14 15  2  0
 15 16  1  0
 16 17  1  0
 17 18  2  0
 18 19  1  0
 19 20  2  0
 20 21  1  0
 20 22  1  0
 22 23  2  0
 23 24  1  0
 15 25  1  0
 25 26  2  0
 25 27  1  0
 27 28  1  0
 27 29  1  0
 29 30  2  0
 31 32  1  0
 32 33  2  0
 32 34  1  0
 34 35  1  0
 35 36  1  0
 36 37  1  0
 37 38  1  0
 38 39  2  0
 38 40  1  0
 40 41  1  6
 41 42  1  0
 42 43  2  0
 43 44  1  0
 44 45  2  0
 45 46  1  0
 46 47  2  0
 40 48  1  0
 48 49  1  0
 49 50  2  0
 49 51  1  0
 51 52  1  0
 52 53  1  0
  8  4  1  0
 30 10  1  0
 47 42  1  0
 29 13  1  0
 23 17  1  0
M  RAD  1  31   2
M  END

