
     RDKit          3D

 52 55  0  0  0  0  0  0  0  0999 V2000
   -3.1774    4.9919    0.1678 C   0  0  0  0  0  0  0  0  0  0  0  0
   -3.0249    3.5584   -0.1610 C   0  0  0  0  0  0  0  0  0  0  0  0
   -3.8049    3.0831   -1.3371 C   0  0  0  0  0  0  0  0  0  0  0  0
   -2.9861    2.6321    0.9980 C   0  0  0  0  0  0  0  0  0  0  0  0
   -2.8282    1.2508    0.5796 N   0  0  0  0  0  0  0  0  0  0  0  0
   -1.6759    0.9089   -0.1397 C   0  0  0  0  0  0  0  0  0  0  0  0
   -0.8101    1.7151   -0.4218 O   0  0  0  0  0  0  0  0  0  0  0  0
   -1.4623   -0.5768   -0.6175 C   0  0  2  0  0  0  0  0  0  0  0  0
   -0.9285   -1.1465    0.8452 C   0  0  0  0  0  0  0  0  0  0  0  0
   -0.6737   -2.5828    0.5671 C   0  0  0  0  0  0  0  0  0  0  0  0
    0.5155   -3.1340    0.1226 C   0  0  0  0  0  0  0  0  0  0  0  0
    0.2798   -4.4637    0.0103 N   0  0  0  0  0  0  0  0  0  0  0  0
   -0.9891   -4.7127    0.3681 C   0  0  0  0  0  0  0  0  0  0  0  0
   -1.5807   -3.5628    0.7115 N   0  0  0  0  0  0  0  0  0  0  0  0
   -0.0422   -0.4268   -1.2650 N   0  0  0  0  0  0  0  0  0  0  0  0
    1.0506   -0.0845   -0.5009 C   0  0  0  0  0  0  0  0  0  0  0  0
    0.8827    0.1092    0.7511 O   0  0  0  0  0  0  0  0  0  0  0  0
    2.3887    0.0488   -1.1532 C   0  0  0  0  0  0  0  0  0  0  0  0
    3.3500    0.4218   -0.0550 C   0  0  0  0  0  0  0  0  0  0  0  0
    4.7288    0.5915   -0.4862 C   0  0  0  0  0  0  0  0  0  0  0  0
    5.6737    0.9236    0.4746 O   0  0  0  0  0  1  0  0  0  0  0  0
    5.1140    0.4553   -1.6651 O   0  0  0  0  0  0  0  0  0  0  0  0
    3.8371   -0.3247   -1.8455 C   0  0  0  0  0  0  0  0  0  0  0  0
    4.3840    0.6546   -0.6088 C   0  0  2  0  0  0  0  0  0  0  0  0
    5.9368    0.0198   -0.7184 C   0  0  0  0  0  0  0  0  0  0  0  0
    6.6045    0.7759    0.3255 N   0  0  0  0  0  0  0  0  0  0  0  0
    6.7439    0.4909    1.6123 N   0  0  0  0  0  0  0  0  0  0  0  0
    7.4385    1.4745    2.2232 C   0  0  0  0  0  0  0  0  0  0  0  0
    7.7217    2.3801    1.2543 N   0  0  0  0  0  0  0  0  0  0  0  0
    7.2114    1.9357    0.1341 N   0  0  0  0  0  0  0  0  0  0  0  0
    3.9623   -0.3853    0.5056 N   0  0  0  0  0  0  0  0  0  0  0  0
    2.5757   -0.6992    0.5372 C   0  0  0  0  0  0  0  0  0  0  0  0
    2.0450   -1.5551    1.4100 N   0  0  0  0  0  0  0  0  0  0  0  0
    0.7378   -1.8482    1.4365 C   0  0  0  0  0  0  0  0  0  0  0  0
   -0.1389   -1.2545    0.5298 C   0  0  0  0  0  0  0  0  0  0  0  0
   -1.4652   -1.5177    0.5174 C   0  0  0  0  0  0  0  0  0  0  0  0
   -2.3006   -0.8544   -0.4605 C   0  0  0  0  0  0  0  0  0  0  0  0
   -3.5895   -1.1513   -0.4281 O   0  0  0  0  0  0  0  0  0  0  0  0
   -4.7773   -0.6427   -0.2099 C   0  0  0  0  0  0  0  0  0  0  0  0
   -5.4613   -1.1506    0.9505 C   0  0  0  0  0  0  0  0  0  0  0  0
   -6.6797   -0.6962    1.2568 C   0  0  0  0  0  0  0  0  0  0  0  0
   -7.3613    0.2538    0.5266 C   0  0  0  0  0  0  0  0  0  0  0  0
   -8.5733    0.6356    0.9237 F   0  0  0  0  0  0  0  0  0  0  0  0
   -6.7159    0.7402   -0.5790 C   0  0  0  0  0  0  0  0  0  0  0  0
   -5.4350    0.2930   -0.9417 C   0  0  0  0  0  0  0  0  0  0  0  0
   -4.9308    0.8312   -2.0822 F   0  0  0  0  0  0  0  0  0  0  0  0
   -1.6649   -0.0012   -1.3065 C   0  0  0  0  0  0  0  0  0  0  0  0
   -2.2494    0.6493   -2.2155 O   0  0  0  0  0  0  0  0  0  0  0  0
   -0.3284    0.2521   -1.2792 N   0  0  0  0  0  0  0  0  0  0  0  0
    0.2939    1.1846   -2.2199 C   0  0  0  0  0  0  0  0  0  0  0  0
    0.4175   -0.3721   -0.3678 C   0  0  0  0  0  0  0  0  0  0  0  0
    1.7615   -0.1181   -0.3397 N   0  0  0  0  0  0  0  0  0  0  0  0
  1  2  1  0
  2  3  1  0
  2  4  1  0
  4  5  1  0
  5  6  1  0
  6  7  2  0
  6  8  1  0
  8  9  1  1
  9 10  1  0
 10 11  2  0
 11 12  1  0
 12 13  1  0
 13 14  2  0
  8 15  1  0
 15 16  1  0
 16 17  2  0
 16 18  1  0
 18 19  1  0
 19 20  1  0
 20 21  1  0
 20 22  2  0
 24 23  1  6
 24 25  1  0
 25 26  1  0
 26 27  1  0
 27 28  2  0
 28 29  1  0
 29 30  2  0
 24 31  1  0
 31 32  1  0
 32 33  2  0
 33 34  1  0
 34 35  2  0
 35 36  1  0
 36 37  2  0
 37 38  1  0
 38 39  1  0
 39 40  2  0
 40 41  1  0
 41 42  2  0
 42 43  1  0
 42 44  1  0
 44 45  2  0
 45 46  1  0
 37 47  1  0
 47 48  2  0
 47 49  1  0
 49 50  1  0
 49 51  1  0
 51 52  2  0
 14 10  1  0
 30 26  1  0
 52 32  1  0
 51 35  1  0
 45 39  1  0
M  RAD  1  21   2
M  END

