
     RDKit          3D

 52 54  0  0  0  0  0  0  0  0999 V2000
    6.3267    0.8767    1.9793 C   0  0  0  0  0  0  0  0  0  0  0  0
    5.8389    0.7638    0.5645 C   0  0  0  0  0  0  0  0  0  0  0  0
    5.5204    2.1565   -0.0001 C   0  0  0  0  0  0  0  0  0  0  0  0
    4.5205    0.0029    0.5137 C   0  0  0  0  0  0  0  0  0  0  0  0
    4.1195   -0.0471   -0.9303 C   0  0  0  0  0  0  0  0  0  0  0  0
    2.8554   -0.7619   -0.9922 N   0  0  0  0  0  0  0  0  0  0  0  0
    1.7602   -0.2657   -0.3052 C   0  0  0  0  0  0  0  0  0  0  0  0
    1.8798    0.7821    0.3466 O   0  0  0  0  0  0  0  0  0  0  0  0
    0.3593   -0.9953   -0.3166 C   0  0  2  0  0  0  0  0  0  0  0  0
   -0.3733   -0.1678   -1.5016 C   0  0  0  0  0  0  0  0  0  0  0  0
    0.2483   -0.2395   -2.7760 C   0  0  0  0  0  0  0  0  0  0  0  0
    1.5861    0.2091   -3.1096 C   0  0  0  0  0  0  0  0  0  0  0  0
   -0.3603   -1.1821   -3.7886 C   0  0  0  0  0  0  0  0  0  0  0  0
   -0.3076   -0.1248    0.8618 N   0  0  0  0  0  0  0  0  0  0  0  0
   -1.7021   -0.2747    1.0086 C   0  0  0  0  0  0  0  0  0  0  0  0
   -2.2821   -1.0496    0.2308 O   0  0  0  0  0  0  0  0  0  0  0  0
   -2.4748    0.4512    2.0439 C   0  0  0  0  0  0  0  0  0  0  0  0
   -3.9163    0.0624    1.9209 C   0  0  0  0  0  0  0  0  0  0  0  0
   -4.5338    0.3764    0.5857 C   0  0  0  0  0  0  0  0  0  0  0  0
   -5.9391   -0.0545    0.6180 C   0  0  0  0  0  0  0  0  0  0  0  0
   -6.4798   -0.6422    1.7363 O   0  0  0  0  0  1  0  0  0  0  0  0
   -6.6459    0.1240   -0.3993 O   0  0  0  0  0  0  0  0  0  0  0  0
    3.4208    0.2072    1.5069 C   0  0  0  0  0  0  0  0  0  0  0  0
    4.1814   -1.2421    1.2441 C   0  0  2  0  0  0  0  0  0  0  0  0
    5.6912   -0.5869    1.2197 C   0  0  0  0  0  0  0  0  0  0  0  0
    5.7634    0.3654    0.1832 N   0  0  0  0  0  0  0  0  0  0  0  0
    5.5321    1.6584    0.0902 N   0  0  0  0  0  0  0  0  0  0  0  0
    5.7569    2.1034   -1.1570 C   0  0  0  0  0  0  0  0  0  0  0  0
    6.1434    1.0320   -1.8579 N   0  0  0  0  0  0  0  0  0  0  0  0
    6.1389    0.0110   -1.0375 N   0  0  0  0  0  0  0  0  0  0  0  0
    3.9843   -1.1990   -0.3112 N   0  0  0  0  0  0  0  0  0  0  0  0
    2.6295   -1.1495   -0.6724 C   0  0  0  0  0  0  0  0  0  0  0  0
    2.2203   -1.1063   -1.9671 N   0  0  0  0  0  0  0  0  0  0  0  0
    0.9207   -1.0588   -2.3097 C   0  0  0  0  0  0  0  0  0  0  0  0
   -0.0487   -1.0524   -1.3467 C   0  0  0  0  0  0  0  0  0  0  0  0
   -1.4031   -1.0052   -1.6047 C   0  0  0  0  0  0  0  0  0  0  0  0
   -2.3218   -1.0020   -0.5709 C   0  0  0  0  0  0  0  0  0  0  0  0
   -3.6879   -0.9557   -0.7820 O   0  0  0  0  0  0  0  0  0  0  0  0
   -4.5046    0.0600   -0.3041 C   0  0  0  0  0  0  0  0  0  0  0  0
   -5.5519   -0.1624    0.5591 C   0  0  0  0  0  0  0  0  0  0  0  0
   -6.3100    0.8857    0.9854 C   0  0  0  0  0  0  0  0  0  0  0  0
   -6.0919    2.1914    0.5990 C   0  0  0  0  0  0  0  0  0  0  0  0
   -6.8727    3.2183    1.0468 F   0  0  0  0  0  0  0  0  0  0  0  0
   -5.0373    2.3940   -0.2667 C   0  0  0  0  0  0  0  0  0  0  0  0
   -4.2574    1.3510   -0.7111 C   0  0  0  0  0  0  0  0  0  0  0  0
   -3.2163    1.6067   -1.5748 F   0  0  0  0  0  0  0  0  0  0  0  0
   -1.8635   -1.0468    0.7280 C   0  0  0  0  0  0  0  0  0  0  0  0
   -2.6469   -1.0468    1.7232 O   0  0  0  0  0  0  0  0  0  0  0  0
   -0.5444   -1.0927    0.9785 N   0  0  0  0  0  0  0  0  0  0  0  0
   -0.0318   -1.1405    2.3343 C   0  0  0  0  0  0  0  0  0  0  0  0
    0.3447   -1.0954   -0.0381 C   0  0  0  0  0  0  0  0  0  0  0  0
    1.6626   -1.1420    0.2433 N   0  0  0  0  0  0  0  0  0  0  0  0
  1  2  1  0
  2  3  1  0
  2  4  1  0
  4  5  1  0
  5  6  1  0
  6  7  1  0
  7  8  2  0
  7  9  1  0
  9 10  1  6
 10 11  1  0
 11 12  1  0
 11 13  1  0
  9 14  1  0
 14 15  1  0
 15 16  2  0
 15 17  1  0
 17 18  1  0
 18 19  1  0
 19 20  1  0
 20 21  1  0
 20 22  2  0
 24 23  1  1
 24 25  1  0
 25 26  1  0
 26 27  1  0
 27 28  2  0
 28 29  1  0
 29 30  2  0
 24 31  1  0
 31 32  1  0
 32 33  2  0
 33 34  1  0
 34 35  2  0
 35 36  1  0
 36 37  2  0
 37 38  1  0
 38 39  1  0
 39 40  2  0
 40 41  1  0
 41 42  2  0
 42 43  1  0
 42 44  1  0
 44 45  2  0
 45 46  1  0
 37 47  1  0
 47 48  2  0
 47 49  1  0
 49 50  1  0
 49 51  1  0
 51 52  2  0
 30 26  1  0
 52 32  1  0
 51 35  1  0
 45 39  1  0
M  RAD  1  21   2
M  END

