
     RDKit          3D

 52 55  0  0  0  0  0  0  0  0999 V2000
   -3.7448    2.8084    0.8778 C   0  0  0  0  0  0  0  0  0  0  0  0
   -4.9068    1.7487    0.4004 C   0  0  1  0  0  0  0  0  0  0  0  0
   -5.5542    2.7465   -0.5389 O   0  0  0  0  0  0  0  0  0  0  0  0
   -4.0078    1.0843   -0.7838 C   0  0  0  0  0  0  0  0  0  0  0  0
   -2.8645    0.5477   -0.0253 C   0  0  0  0  0  0  0  0  0  0  0  0
   -2.7425    0.7185    1.2057 O   0  0  0  0  0  0  0  0  0  0  0  0
   -1.8175   -0.2129   -0.6854 N   0  0  0  0  0  0  0  0  0  0  0  0
   -0.6890   -0.7169    0.2763 C   0  0  1  0  0  0  0  0  0  0  0  0
   -1.1245   -2.2929   -0.0062 C   0  0  0  0  0  0  0  0  0  0  0  0
   -0.3592   -3.2044    0.6697 C   0  0  0  0  0  0  0  0  0  0  0  0
    0.8020   -3.7900    0.2418 O   0  0  0  0  0  1  0  0  0  0  0  0
   -0.8107   -3.5039    1.7951 O   0  0  0  0  0  0  0  0  0  0  0  0
    0.4732   -0.7505   -0.8003 C   0  0  0  0  0  0  0  0  0  0  0  0
    0.3892   -0.4089   -1.9299 O   0  0  0  0  0  0  0  0  0  0  0  0
    1.6708   -1.2556   -0.2317 N   0  0  0  0  0  0  0  0  0  0  0  0
    2.8614   -1.3707   -1.0494 C   0  0  0  0  0  0  0  0  0  0  0  0
    3.2670   -0.0168   -1.5605 C   0  0  0  0  0  0  0  0  0  0  0  0
    3.5849    0.9012   -0.4414 C   0  0  0  0  0  0  0  0  0  0  0  0
    3.9742    2.2025   -0.4488 C   0  0  0  0  0  0  0  0  0  0  0  0
    4.1610    2.6188    0.8314 N   0  0  0  0  0  0  0  0  0  0  0  0
    3.8953    1.6009    1.6359 C   0  0  0  0  0  0  0  0  0  0  0  0
    3.5423    0.5460    0.8808 N   0  0  0  0  0  0  0  0  0  0  0  0
    3.7571   -1.7220   -0.8220 C   0  0  0  0  0  0  0  0  0  0  0  0
    4.1402   -0.4907   -1.8674 C   0  0  2  0  0  0  0  0  0  0  0  0
    5.7674   -0.6496   -1.6211 C   0  0  0  0  0  0  0  0  0  0  0  0
    6.0472   -0.4408   -0.2698 N   0  0  0  0  0  0  0  0  0  0  0  0
    6.3341    0.7317    0.2874 N   0  0  0  0  0  0  0  0  0  0  0  0
    6.5490    0.5536    1.6185 C   0  0  0  0  0  0  0  0  0  0  0  0
    6.3819   -0.7429    1.8245 N   0  0  0  0  0  0  0  0  0  0  0  0
    6.0831   -1.3240    0.6909 N   0  0  0  0  0  0  0  0  0  0  0  0
    3.8913    0.6346   -0.7802 N   0  0  0  0  0  0  0  0  0  0  0  0
    2.5765    0.6411   -0.2811 C   0  0  0  0  0  0  0  0  0  0  0  0
    2.2412    1.5477    0.6454 N   0  0  0  0  0  0  0  0  0  0  0  0
    1.0157    1.6387    1.1856 C   0  0  0  0  0  0  0  0  0  0  0  0
    0.0627    0.7553    0.7631 C   0  0  0  0  0  0  0  0  0  0  0  0
   -1.2257    0.8065    1.2917 C   0  0  0  0  0  0  0  0  0  0  0  0
   -2.1190   -0.1263    0.8031 C   0  0  0  0  0  0  0  0  0  0  0  0
   -3.4086   -0.1205    1.2922 O   0  0  0  0  0  0  0  0  0  0  0  0
   -4.5077    0.0803    0.4574 C   0  0  0  0  0  0  0  0  0  0  0  0
   -5.5097   -0.8608    0.3199 C   0  0  0  0  0  0  0  0  0  0  0  0
   -6.5895   -0.6407   -0.5130 C   0  0  0  0  0  0  0  0  0  0  0  0
   -6.7140    0.5245   -1.2414 C   0  0  0  0  0  0  0  0  0  0  0  0
   -7.7783    0.7451   -2.0643 F   0  0  0  0  0  0  0  0  0  0  0  0
   -5.7213    1.4739   -1.1146 C   0  0  0  0  0  0  0  0  0  0  0  0
   -4.6490    1.2400   -0.2789 C   0  0  0  0  0  0  0  0  0  0  0  0
   -3.6476    2.1613   -0.1309 F   0  0  0  0  0  0  0  0  0  0  0  0
   -1.7408   -1.0453   -0.1504 C   0  0  0  0  0  0  0  0  0  0  0  0
   -2.6066   -1.8610   -0.5458 O   0  0  0  0  0  0  0  0  0  0  0  0
   -0.4971   -1.0684   -0.6374 N   0  0  0  0  0  0  0  0  0  0  0  0
   -0.1509   -2.0457   -1.6304 C   0  0  0  0  0  0  0  0  0  0  0  0
    0.3806   -0.1827   -0.1846 C   0  0  0  0  0  0  0  0  0  0  0  0
    1.6377   -0.2128   -0.6829 N   0  0  0  0  0  0  0  0  0  0  0  0
  2  1  1  1
  2  3  1  0
  2  4  1  0
  4  5  1  0
  5  6  2  0
  5  7  1  0
  7  8  1  0
  8  9  1  6
  9 10  1  0
 10 11  1  0
 10 12  2  0
  8 13  1  0
 13 14  2  0
 13 15  1  0
 15 16  1  0
 16 17  1  0
 17 18  1  0
 18 19  2  0
 19 20  1  0
 20 21  1  0
 21 22  2  0
 24 23  1  1
 24 25  1  0
 25 26  1  0
 26 27  1  0
 27 28  2  0
 28 29  1  0
 29 30  2  0
 24 31  1  0
 31 32  1  0
 32 33  2  0
 33 34  1  0
 34 35  2  0
 35 36  1  0
 36 37  2  0
 37 38  1  0
 38 39  1  0
 39 40  2  0
 40 41  1  0
 41 42  2  0
 42 43  1  0
 42 44  1  0
 44 45  2  0
 45 46  1  0
 37 47  1  0
 47 48  2  0
 47 49  1  0
 49 50  1  0
 49 51  1  0
 51 52  2  0
 22 18  1  0
 30 26  1  0
 52 32  1  0
 51 35  1  0
 45 39  1  0
M  RAD  1  11   2
M  END

