
     RDKit          3D

 50 53  0  0  0  0  0  0  0  0999 V2000
    4.5463   -0.7870   -0.4570 C   0  0  0  0  0  0  0  0  0  0  0  0
    4.5583    0.5520   -1.4594 C   0  0  2  0  0  0  0  0  0  0  0  0
    5.8580    1.2182   -0.6638 C   0  0  0  0  0  0  0  0  0  0  0  0
    6.9050    0.2299   -0.8219 N   0  0  0  0  0  0  0  0  0  0  0  0
    7.7965    0.1257   -1.7805 N   0  0  0  0  0  0  0  0  0  0  0  0
    8.5954   -0.9390   -1.5540 C   0  0  0  0  0  0  0  0  0  0  0  0
    8.1605   -1.4887   -0.4152 N   0  0  0  0  0  0  0  0  0  0  0  0
    7.1326   -0.7651    0.0157 N   0  0  0  0  0  0  0  0  0  0  0  0
    3.5091    1.3220   -0.5618 N   0  0  0  0  0  0  0  0  0  0  0  0
    2.2625    0.6590   -0.4274 C   0  0  0  0  0  0  0  0  0  0  0  0
    2.0465   -0.5106   -1.0271 N   0  0  0  0  0  0  0  0  0  0  0  0
    0.8874   -1.1891   -0.9387 C   0  0  0  0  0  0  0  0  0  0  0  0
   -0.1224   -0.6200   -0.1764 C   0  0  0  0  0  0  0  0  0  0  0  0
   -1.3346   -1.2675   -0.0472 C   0  0  0  0  0  0  0  0  0  0  0  0
   -2.3315   -0.6656    0.7290 C   0  0  0  0  0  0  0  0  0  0  0  0
   -3.5625   -1.2262    0.9174 O   0  0  0  0  0  0  0  0  0  0  0  0
   -4.7356   -0.5664    0.5213 C   0  0  0  0  0  0  0  0  0  0  0  0
   -4.7196    0.6718   -0.0746 C   0  0  0  0  0  0  0  0  0  0  0  0
   -5.8898    1.2966   -0.4537 C   0  0  0  0  0  0  0  0  0  0  0  0
   -7.1231    0.7115   -0.2536 C   0  0  0  0  0  0  0  0  0  0  0  0
   -8.2724    1.3351   -0.6307 F   0  0  0  0  0  0  0  0  0  0  0  0
   -7.1322   -0.5320    0.3453 C   0  0  0  0  0  0  0  0  0  0  0  0
   -5.9615   -1.1652    0.7285 C   0  0  0  0  0  0  0  0  0  0  0  0
   -5.9555   -2.3855    1.3172 F   0  0  0  0  0  0  0  0  0  0  0  0
   -2.0441    0.5475    1.3243 C   0  0  0  0  0  0  0  0  0  0  0  0
   -2.9387    1.0964    2.0261 O   0  0  0  0  0  0  0  0  0  0  0  0
   -0.8628    1.1725    1.1949 N   0  0  0  0  0  0  0  0  0  0  0  0
   -0.6610    2.4424    1.8599 C   0  0  0  0  0  0  0  0  0  0  0  0
    0.1091    0.5886    0.4398 C   0  0  0  0  0  0  0  0  0  0  0  0
    1.2802    1.2286    0.3237 N   0  0  0  0  0  0  0  0  0  0  0  0
    5.5660    0.5458    2.4958 O   0  0  0  0  0  1  0  0  0  0  0  0
    5.0488    0.9636    1.2771 C   0  0  0  0  0  0  0  0  0  0  0  0
    5.8759    1.1112    0.3200 O   0  0  0  0  0  0  0  0  0  0  0  0
    3.5933    1.2265    1.0992 C   0  0  0  0  0  0  0  0  0  0  0  0
    3.3809    1.6645   -0.3493 C   0  0  0  0  0  0  0  0  0  0  0  0
    1.9469    1.9121   -0.4848 N   0  0  0  0  0  0  0  0  0  0  0  0
    1.0905    0.8032   -0.2266 C   0  0  0  0  0  0  0  0  0  0  0  0
    1.5063   -0.2638    0.0813 O   0  0  0  0  0  0  0  0  0  0  0  0
   -0.4615    1.1748   -0.4013 C   0  0  2  0  0  0  0  0  0  0  0  0
   -0.7027    1.7699    1.1301 C   0  0  0  0  0  0  0  0  0  0  0  0
   -0.4537    0.6093    1.9739 C   0  0  0  0  0  0  0  0  0  0  0  0
   -0.4545   -0.6450    1.1704 C   0  0  0  0  0  0  0  0  0  0  0  0
   -1.0219   -0.2401   -0.0464 N   0  0  0  0  0  0  0  0  0  0  0  0
   -1.9356   -0.8563   -0.9178 C   0  0  0  0  0  0  0  0  0  0  0  0
   -2.3053   -0.2893   -1.9715 O   0  0  0  0  0  0  0  0  0  0  0  0
   -2.4258   -2.2044   -0.5125 C   0  0  0  0  0  0  0  0  0  0  0  0
   -3.4202   -2.7060   -1.5003 C   0  0  0  0  0  0  0  0  0  0  0  0
   -4.5727   -1.7886   -1.5627 C   0  0  0  0  0  0  0  0  0  0  0  0
   -5.6456   -2.0187   -2.4296 O   0  0  0  0  0  1  0  0  0  0  0  0
   -4.6092   -0.7687   -0.8254 O   0  0  0  0  0  0  0  0  0  0  0  0
  2  1  1  1
  2  3  1  0
  3  4  1  0
  4  5  1  0
  5  6  2  0
  6  7  1  0
  7  8  2  0
  2  9  1  0
  9 10  1  0
 10 11  2  0
 11 12  1  0
 12 13  2  0
 13 14  1  0
 14 15  2  0
 15 16  1  0
 16 17  1  0
 17 18  2  0
 18 19  1  0
 19 20  2  0
 20 21  1  0
 20 22  1  0
 22 23  2  0
 23 24  1  0
 15 25  1  0
 25 26  2  0
 25 27  1  0
 27 28  1  0
 27 29  1  0
 29 30  2  0
 31 32  1  0
 32 33  2  0
 32 34  1  0
 34 35  1  0
 35 36  1  0
 36 37  1  0
 37 38  2  0
 39 37  1  1
 39 40  1  0
 40 41  1  0
 41 42  1  0
 42 43  1  0
 43 44  1  0
 44 45  2  0
 44 46  1  0
 46 47  1  0
 47 48  1  0
 48 49  1  0
 48 50  2  0
  8  4  1  0
 30 10  1  0
 43 39  1  0
 29 13  1  0
 23 17  1  0
M  RAD  2  31   2  49   2
M  END

