
     RDKit          3D

 53 56  0  0  0  0  0  0  0  0999 V2000
    5.0361    1.4721   -1.0149 C   0  0  0  0  0  0  0  0  0  0  0  0
    5.8368    0.7163    0.4302 S   0  0  0  0  0  0  0  0  0  0  0  0
    5.3217   -1.0180    0.4824 C   0  0  0  0  0  0  0  0  0  0  0  0
    3.8604   -1.1170    0.7689 C   0  0  0  0  0  0  0  0  0  0  0  0
    3.3911   -2.5507    0.8269 C   0  0  0  0  0  0  0  0  0  0  0  0
    1.9731   -2.5218    1.1153 N   0  0  0  0  0  0  0  0  0  0  0  0
    1.1207   -1.8528    0.1859 C   0  0  0  0  0  0  0  0  0  0  0  0
    1.5017   -1.3152   -0.8356 O   0  0  0  0  0  0  0  0  0  0  0  0
   -0.3870   -1.8848    0.6574 C   0  0  2  0  0  0  0  0  0  0  0  0
   -0.9466   -3.0472   -0.2978 C   0  0  0  0  0  0  0  0  0  0  0  0
   -0.3381   -4.3311   -0.1370 C   0  0  0  0  0  0  0  0  0  0  0  0
    1.0824   -4.5525   -0.3843 C   0  0  0  0  0  0  0  0  0  0  0  0
   -0.7683   -5.1104    1.0947 C   0  0  0  0  0  0  0  0  0  0  0  0
   -0.9258   -0.7300   -0.3404 N   0  0  0  0  0  0  0  0  0  0  0  0
   -1.4639    0.3400    0.4286 C   0  0  0  0  0  0  0  0  0  0  0  0
   -1.4861    0.3427    1.6823 O   0  0  0  0  0  0  0  0  0  0  0  0
   -2.0456    1.5410   -0.2384 C   0  0  0  0  0  0  0  0  0  0  0  0
   -2.5783    2.5288    0.7749 C   0  0  0  0  0  0  0  0  0  0  0  0
   -3.1745    3.7103    0.1198 C   0  0  0  0  0  0  0  0  0  0  0  0
   -3.7582    4.8297    0.6571 C   0  0  0  0  0  0  0  0  0  0  0  0
   -4.1711    5.6517   -0.3201 N   0  0  0  0  0  0  0  0  0  0  0  0
   -3.8416    5.0363   -1.4673 C   0  0  0  0  0  0  0  0  0  0  0  0
   -3.2390    3.8627   -1.2060 N   0  0  0  0  0  0  0  0  0  0  0  0
    3.9871    0.0796   -0.2347 C   0  0  0  0  0  0  0  0  0  0  0  0
    4.1268   -1.2179   -1.2679 C   0  0  2  0  0  0  0  0  0  0  0  0
    5.4039   -0.5178   -2.0837 C   0  0  0  0  0  0  0  0  0  0  0  0
    6.4118   -0.3373   -1.0789 N   0  0  0  0  0  0  0  0  0  0  0  0
    7.3440   -1.1876   -0.7457 N   0  0  0  0  0  0  0  0  0  0  0  0
    8.0759   -0.6342    0.2315 C   0  0  0  0  0  0  0  0  0  0  0  0
    7.5408    0.5707    0.4605 N   0  0  0  0  0  0  0  0  0  0  0  0
    6.5278    0.7505   -0.3378 N   0  0  0  0  0  0  0  0  0  0  0  0
    3.0658   -0.6269   -2.2845 N   0  0  0  0  0  0  0  0  0  0  0  0
    1.7693   -0.4282   -1.6875 C   0  0  0  0  0  0  0  0  0  0  0  0
    0.7505    0.0663   -2.4072 N   0  0  0  0  0  0  0  0  0  0  0  0
   -0.4805    0.2808   -1.9310 C   0  0  0  0  0  0  0  0  0  0  0  0
   -0.7536   -0.0218   -0.5946 C   0  0  0  0  0  0  0  0  0  0  0  0
   -2.0262    0.1941   -0.0816 C   0  0  0  0  0  0  0  0  0  0  0  0
   -2.2192   -0.1279    1.2430 C   0  0  0  0  0  0  0  0  0  0  0  0
   -3.4556    0.0527    1.8435 O   0  0  0  0  0  0  0  0  0  0  0  0
   -4.5564    0.5482    1.2020 C   0  0  0  0  0  0  0  0  0  0  0  0
   -5.1335    1.7005    1.6731 C   0  0  0  0  0  0  0  0  0  0  0  0
   -6.2560    2.2413    1.0511 C   0  0  0  0  0  0  0  0  0  0  0  0
   -6.7984    1.6158   -0.0518 C   0  0  0  0  0  0  0  0  0  0  0  0
   -7.8981    2.1422   -0.6643 F   0  0  0  0  0  0  0  0  0  0  0  0
   -6.2405    0.4656   -0.5401 C   0  0  0  0  0  0  0  0  0  0  0  0
   -5.1337   -0.0403    0.0981 C   0  0  0  0  0  0  0  0  0  0  0  0
   -4.5749   -1.1687   -0.3696 F   0  0  0  0  0  0  0  0  0  0  0  0
   -1.1631   -0.6358    1.9725 C   0  0  0  0  0  0  0  0  0  0  0  0
   -1.3384   -0.9322    3.1895 O   0  0  0  0  0  0  0  0  0  0  0  0
    0.0551   -0.8330    1.4483 N   0  0  0  0  0  0  0  0  0  0  0  0
    1.1659   -1.3640    2.2047 C   0  0  0  0  0  0  0  0  0  0  0  0
    0.2918   -0.5292    0.1439 C   0  0  0  0  0  0  0  0  0  0  0  0
    1.5115   -0.7209   -0.4009 N   0  0  0  0  0  0  0  0  0  0  0  0
  1  2  1  0
  2  3  1  0
  3  4  1  0
  4  5  1  0
  5  6  1  0
  6  7  1  0
  7  8  2  0
  7  9  1  0
  9 10  1  6
 10 11  1  0
 11 12  1  0
 11 13  1  0
  9 14  1  0
 14 15  1  0
 15 16  2  0
 15 17  1  0
 17 18  1  0
 18 19  1  0
 19 20  2  0
 20 21  1  0
 21 22  1  0
 22 23  2  0
 25 24  1  1
 25 26  1  0
 26 27  1  0
 27 28  1  0
 28 29  2  0
 29 30  1  0
 30 31  2  0
 25 32  1  0
 32 33  1  0
 33 34  2  0
 34 35  1  0
 35 36  2  0
 36 37  1  0
 37 38  2  0
 38 39  1  0
 39 40  1  0
 40 41  2  0
 41 42  1  0
 42 43  2  0
 43 44  1  0
 43 45  1  0
 45 46  2  0
 46 47  1  0
 38 48  1  0
 48 49  2  0
 48 50  1  0
 50 51  1  0
 50 52  1  0
 52 53  2  0
 23 19  1  0
 31 27  1  0
 53 33  1  0
 52 36  1  0
 46 40  1  0
M  END

