
     RDKit          3D

 56 58  0  0  0  0  0  0  0  0999 V2000
    4.1592    2.5502   -1.0898 C   0  0  0  0  0  0  0  0  0  0  0  0
    4.7159    1.7001    0.2227 C   0  0  2  0  0  0  0  0  0  0  0  0
    6.1008    1.2312   -0.5945 C   0  0  0  0  0  0  0  0  0  0  0  0
    6.8164    0.4272    0.3767 N   0  0  0  0  0  0  0  0  0  0  0  0
    6.6169   -0.8749    0.4572 N   0  0  0  0  0  0  0  0  0  0  0  0
    7.3900   -1.3700    1.4205 C   0  0  0  0  0  0  0  0  0  0  0  0
    8.0693   -0.3271    1.9267 N   0  0  0  0  0  0  0  0  0  0  0  0
    7.6959    0.7482    1.2690 N   0  0  0  0  0  0  0  0  0  0  0  0
    3.9202    0.3916   -0.1820 N   0  0  0  0  0  0  0  0  0  0  0  0
    2.4990    0.6448   -0.2283 C   0  0  0  0  0  0  0  0  0  0  0  0
    1.9466    1.8278    0.0370 N   0  0  0  0  0  0  0  0  0  0  0  0
    0.6349    2.0893    0.0016 C   0  0  0  0  0  0  0  0  0  0  0  0
   -0.2439    1.0749   -0.3328 C   0  0  0  0  0  0  0  0  0  0  0  0
   -1.5877    1.2445   -0.3944 C   0  0  0  0  0  0  0  0  0  0  0  0
   -2.4127    0.1294   -0.7508 C   0  0  0  0  0  0  0  0  0  0  0  0
   -3.7152    0.4390   -0.7746 O   0  0  0  0  0  0  0  0  0  0  0  0
   -4.8559    0.1459   -0.1684 C   0  0  0  0  0  0  0  0  0  0  0  0
   -5.4464    1.2252    0.5686 C   0  0  0  0  0  0  0  0  0  0  0  0
   -6.6035    1.0666    1.2284 C   0  0  0  0  0  0  0  0  0  0  0  0
   -7.2840   -0.1173    1.2403 C   0  0  0  0  0  0  0  0  0  0  0  0
   -8.4384   -0.2513    1.9078 F   0  0  0  0  0  0  0  0  0  0  0  0
   -6.7484   -1.1605    0.5490 C   0  0  0  0  0  0  0  0  0  0  0  0
   -5.5381   -1.0398   -0.1576 C   0  0  0  0  0  0  0  0  0  0  0  0
   -5.1178   -2.1253   -0.8349 F   0  0  0  0  0  0  0  0  0  0  0  0
   -1.8011   -1.0635   -1.0151 C   0  0  0  0  0  0  0  0  0  0  0  0
   -2.4290   -2.1013   -1.3398 O   0  0  0  0  0  0  0  0  0  0  0  0
   -0.4556   -1.2052   -0.9455 N   0  0  0  0  0  0  0  0  0  0  0  0
    0.1506   -2.4875   -1.2328 C   0  0  0  0  0  0  0  0  0  0  0  0
    0.3092   -0.1554   -0.6104 C   0  0  0  0  0  0  0  0  0  0  0  0
    1.6527   -0.3451   -0.5537 N   0  0  0  0  0  0  0  0  0  0  0  0
    8.0780    1.6437    0.1685 N   0  0  0  0  0  0  0  0  0  0  0  0
    7.0665    0.7365   -0.2620 C   0  0  0  0  0  0  0  0  0  0  0  0
    7.3321   -0.5080   -0.1959 N   0  0  0  0  0  4  0  0  0  0  0  0
    5.8192    1.1956   -0.7450 N   0  0  0  0  0  0  0  0  0  0  0  0
    4.8206    0.2614   -1.1737 C   0  0  0  0  0  0  0  0  0  0  0  0
    4.4726   -0.6308   -0.0027 C   0  0  0  0  0  0  0  0  0  0  0  0
    3.9599    0.2751    1.0945 C   0  0  0  0  0  0  0  0  0  0  0  0
    2.7554    0.9915    0.5634 C   0  0  0  0  0  0  0  0  0  0  0  0
    1.7063   -0.0003    0.1867 C   0  0  0  0  0  0  0  0  0  0  0  0
    1.8478   -1.2222    0.3127 O   0  0  0  0  0  0  0  0  0  0  0  0
    0.5302    0.5245   -0.3253 N   0  0  0  0  0  0  0  0  0  0  0  0
   -0.6370   -0.4314   -0.7519 C   0  0  1  0  0  0  0  0  0  0  0  0
   -0.4817   -1.4983    0.5089 C   0  0  0  0  0  0  0  0  0  0  0  0
   -1.5738   -2.5266    0.2378 C   0  0  0  0  0  0  0  0  0  0  0  0
   -1.3584   -3.1834   -1.0785 C   0  0  0  0  0  0  0  0  0  0  0  0
   -2.2526   -4.1859   -1.5171 N   0  0  0  0  0  0  0  0  0  0  0  0
   -0.3914   -2.8680   -1.8191 O   0  0  0  0  0  0  0  0  0  0  0  0
   -1.8049    0.4010   -0.0470 C   0  0  0  0  0  0  0  0  0  0  0  0
   -1.5894    1.4346    0.5606 O   0  0  0  0  0  0  0  0  0  0  0  0
   -3.1172   -0.1379   -0.1710 N   0  0  0  0  0  0  0  0  0  0  0  0
   -4.1652    0.6262    0.4770 C   0  0  0  0  0  0  0  0  0  0  0  0
   -5.5230    0.0399    0.3262 C   0  0  0  0  0  0  0  0  0  0  0  0
   -6.4792    0.9911    1.0715 C   0  0  0  0  0  0  0  0  0  0  0  0
   -6.3251    2.3118    0.3938 C   0  0  0  0  0  0  0  0  0  0  0  0
   -7.3514    2.7095   -0.4701 O   0  0  0  0  0  1  0  0  0  0  0  0
   -5.3384    3.0505    0.5689 O   0  0  0  0  0  0  0  0  0  0  0  0
  2  1  1  6
  2  3  1  0
  3  4  1  0
  4  5  1  0
  5  6  2  0
  6  7  1  0
  7  8  2  0
  2  9  1  0
  9 10  1  0
 10 11  2  0
 11 12  1  0
 12 13  2  0
 13 14  1  0
 14 15  2  0
 15 16  1  0
 16 17  1  0
 17 18  2  0
 18 19  1  0
 19 20  2  0
 20 21  1  0
 20 22  1  0
 22 23  2  0
 23 24  1  0
 15 25  1  0
 25 26  2  0
 25 27  1  0
 27 28  1  0
 27 29  1  0
 29 30  2  0
 31 32  1  0
 32 33  2  0
 32 34  1  0
 34 35  1  0
 35 36  1  0
 36 37  1  0
 37 38  1  0
 38 39  1  0
 39 40  2  0
 39 41  1  0
 41 42  1  0
 42 43  1  1
 43 44  1  0
 44 45  1  0
 45 46  1  0
 45 47  2  0
 42 48  1  0
 48 49  2  0
 48 50  1  0
 50 51  1  0
 51 52  1  0
 52 53  1  0
 53 54  1  0
 54 55  1  0
 54 56  2  0
  8  4  1  0
 30 10  1  0
 29 13  1  0
 23 17  1  0
M  CHG  1  33   1
M  RAD  1  55   2
M  END

