
     RDKit          3D

 51 54  0  0  0  0  0  0  0  0999 V2000
   -5.7872   -2.8761   -1.6876 C   0  0  0  0  0  0  0  0  0  0  0  0
   -6.3210   -1.1471   -1.5637 S   0  0  0  0  0  0  0  0  0  0  0  0
   -4.9778   -0.0820   -1.0336 C   0  0  0  0  0  0  0  0  0  0  0  0
   -4.5145   -0.3528    0.3738 C   0  0  0  0  0  0  0  0  0  0  0  0
   -3.4059    0.5825    0.7014 C   0  0  0  0  0  0  0  0  0  0  0  0
   -2.2395    0.4228   -0.2183 C   0  0  0  0  0  0  0  0  0  0  0  0
   -2.3559   -0.4694   -1.1263 O   0  0  0  0  0  0  0  0  0  0  0  0
   -1.0742    1.1704   -0.1385 N   0  0  0  0  0  0  0  0  0  0  0  0
   -0.7175    2.1812    0.7463 C   0  0  0  0  0  0  0  0  0  0  0  0
    0.3493    2.9854    0.0447 C   0  0  0  0  0  0  0  0  0  0  0  0
    0.3839    2.5281   -1.3844 C   0  0  0  0  0  0  0  0  0  0  0  0
    0.0457    0.8955   -1.1546 C   0  0  1  0  0  0  0  0  0  0  0  0
    1.2795    0.6896   -0.1262 C   0  0  0  0  0  0  0  0  0  0  0  0
    2.3589    0.4322   -0.7124 O   0  0  0  0  0  0  0  0  0  0  0  0
    1.0841    0.8006    1.2167 N   0  0  0  0  0  0  0  0  0  0  0  0
    2.0872    0.6387    2.1967 C   0  0  0  0  0  0  0  0  0  0  0  0
    2.8014   -0.6021    2.3314 C   0  0  0  0  0  0  0  0  0  0  0  0
    3.6717   -1.1448    1.2924 C   0  0  0  0  0  0  0  0  0  0  0  0
    4.8806   -0.2981    0.9484 C   0  0  0  0  0  0  0  0  0  0  0  0
    5.6369   -1.0518   -0.1477 C   0  0  0  0  0  0  0  0  0  0  0  0
    6.8143   -0.3377   -0.5587 N   0  0  0  0  0  4  0  0  0  0  0  0
    3.8699   -1.7180    0.9208 C   0  0  0  0  0  0  0  0  0  0  0  0
    4.5473   -0.7581   -0.2612 C   0  0  2  0  0  0  0  0  0  0  0  0
    5.8847   -0.4108    0.6919 C   0  0  0  0  0  0  0  0  0  0  0  0
    6.6320    0.4502   -0.1915 N   0  0  0  0  0  0  0  0  0  0  0  0
    7.5369    0.0398   -1.0606 N   0  0  0  0  0  0  0  0  0  0  0  0
    7.9957    1.1265   -1.6802 C   0  0  0  0  0  0  0  0  0  0  0  0
    7.3695    2.2038   -1.1882 N   0  0  0  0  0  0  0  0  0  0  0  0
    6.5287    1.7694   -0.2680 N   0  0  0  0  0  0  0  0  0  0  0  0
    3.7659    0.5416    0.2034 N   0  0  0  0  0  0  0  0  0  0  0  0
    2.3629    0.4589    0.1671 C   0  0  0  0  0  0  0  0  0  0  0  0
    1.6240    1.5128    0.5433 N   0  0  0  0  0  0  0  0  0  0  0  0
    0.2789    1.4629    0.5192 C   0  0  0  0  0  0  0  0  0  0  0  0
   -0.3959    0.3267    0.1068 C   0  0  0  0  0  0  0  0  0  0  0  0
   -1.7848    0.2615    0.0769 C   0  0  0  0  0  0  0  0  0  0  0  0
   -2.4315   -0.8848   -0.3390 C   0  0  0  0  0  0  0  0  0  0  0  0
   -3.7913   -1.0376   -0.4003 O   0  0  0  0  0  0  0  0  0  0  0  0
   -4.7358   -0.1205   -0.0743 C   0  0  0  0  0  0  0  0  0  0  0  0
   -4.4125    1.1351    0.3795 C   0  0  0  0  0  0  0  0  0  0  0  0
   -5.3995    2.0651    0.7100 C   0  0  0  0  0  0  0  0  0  0  0  0
   -6.7153    1.7374    0.5859 C   0  0  0  0  0  0  0  0  0  0  0  0
   -7.7002    2.6373    0.9055 F   0  0  0  0  0  0  0  0  0  0  0  0
   -7.0699    0.4888    0.1344 C   0  0  0  0  0  0  0  0  0  0  0  0
   -6.0698   -0.4303   -0.1921 C   0  0  0  0  0  0  0  0  0  0  0  0
   -6.4723   -1.6426   -0.6306 F   0  0  0  0  0  0  0  0  0  0  0  0
   -1.6262   -1.9409   -0.7157 C   0  0  0  0  0  0  0  0  0  0  0  0
   -2.1725   -3.0156   -1.1054 O   0  0  0  0  0  0  0  0  0  0  0  0
   -0.2723   -1.8665   -0.6827 N   0  0  0  0  0  0  0  0  0  0  0  0
    0.5697   -2.9849   -1.0817 C   0  0  0  0  0  0  0  0  0  0  0  0
    0.3759   -0.7511   -0.2779 C   0  0  0  0  0  0  0  0  0  0  0  0
    1.7077   -0.6559   -0.2375 N   0  0  0  0  0  0  0  0  0  0  0  0
  1  2  1  0
  2  3  1  0
  3  4  1  0
  4  5  1  0
  5  6  1  0
  6  7  2  0
  6  8  1  0
  8  9  1  0
  9 10  1  0
 10 11  1  0
 11 12  1  0
 12 13  1  1
 13 14  2  0
 13 15  1  0
 15 16  1  0
 16 17  1  0
 17 18  1  0
 18 19  1  0
 19 20  1  0
 20 21  1  0
 23 22  1  1
 23 24  1  0
 24 25  1  0
 25 26  1  0
 26 27  2  0
 27 28  1  0
 28 29  2  0
 23 30  1  0
 30 31  1  0
 31 32  2  0
 32 33  1  0
 33 34  2  0
 34 35  1  0
 35 36  2  0
 36 37  1  0
 37 38  1  0
 38 39  2  0
 39 40  1  0
 40 41  2  0
 41 42  1  0
 41 43  1  0
 43 44  2  0
 44 45  1  0
 36 46  1  0
 46 47  2  0
 46 48  1  0
 48 49  1  0
 48 50  1  0
 50 51  2  0
 12  8  1  0
 29 25  1  0
 51 31  1  0
 50 34  1  0
 44 38  1  0
M  CHG  1  21   1
M  END

