
     RDKit          3D

 49 51  0  0  0  0  0  0  0  0999 V2000
    4.2731   -2.7050   -1.3649 C   0  0  0  0  0  0  0  0  0  0  0  0
    4.6223   -1.0866   -1.5221 C   0  0  2  0  0  0  0  0  0  0  0  0
    5.9006   -1.2001   -0.4409 C   0  0  0  0  0  0  0  0  0  0  0  0
    6.4045    0.1560   -0.3991 N   0  0  0  0  0  0  0  0  0  0  0  0
    6.0139    1.1005    0.4263 N   0  0  0  0  0  0  0  0  0  0  0  0
    6.7167    2.2128    0.1496 C   0  0  0  0  0  0  0  0  0  0  0  0
    7.5374    1.9347   -0.8513 N   0  0  0  0  0  0  0  0  0  0  0  0
    7.3362    0.6654   -1.1807 N   0  0  0  0  0  0  0  0  0  0  0  0
    3.6342   -0.5769   -0.3976 N   0  0  0  0  0  0  0  0  0  0  0  0
    2.2799   -0.8349   -0.5244 C   0  0  0  0  0  0  0  0  0  0  0  0
    1.8145   -1.4995   -1.5721 N   0  0  0  0  0  0  0  0  0  0  0  0
    0.4880   -1.7594   -1.7089 C   0  0  0  0  0  0  0  0  0  0  0  0
   -0.3952   -1.3273   -0.7447 C   0  0  0  0  0  0  0  0  0  0  0  0
   -1.7592   -1.5697   -0.8420 C   0  0  0  0  0  0  0  0  0  0  0  0
   -2.6050   -1.1218    0.1408 C   0  0  0  0  0  0  0  0  0  0  0  0
   -3.9710   -1.3071    0.1436 O   0  0  0  0  0  0  0  0  0  0  0  0
   -4.7564   -0.1368    0.1535 C   0  0  0  0  0  0  0  0  0  0  0  0
   -5.6437    0.1279    1.1763 C   0  0  0  0  0  0  0  0  0  0  0  0
   -6.4005    1.2840    1.1586 C   0  0  0  0  0  0  0  0  0  0  0  0
   -6.3045    2.2050    0.1394 C   0  0  0  0  0  0  0  0  0  0  0  0
   -7.0459    3.3433    0.1166 F   0  0  0  0  0  0  0  0  0  0  0  0
   -5.4165    1.9381   -0.8824 C   0  0  0  0  0  0  0  0  0  0  0  0
   -4.6532    0.7813   -0.8734 C   0  0  0  0  0  0  0  0  0  0  0  0
   -3.7951    0.5437   -1.8802 F   0  0  0  0  0  0  0  0  0  0  0  0
   -2.0521   -0.4344    1.2075 C   0  0  0  0  0  0  0  0  0  0  0  0
   -2.7977   -0.0011    2.1409 O   0  0  0  0  0  0  0  0  0  0  0  0
   -0.7409   -0.2072    1.2908 N   0  0  0  0  0  0  0  0  0  0  0  0
   -0.2116    0.5249    2.4409 C   0  0  0  0  0  0  0  0  0  0  0  0
    0.0994   -0.6385    0.3382 C   0  0  0  0  0  0  0  0  0  0  0  0
    1.4278   -0.4110    0.4180 N   0  0  0  0  0  0  0  0  0  0  0  0
    2.1822   -1.4258    1.7555 C   0  0  0  0  0  0  0  0  0  0  0  0
    1.6570   -1.9099    0.2870 C   0  0  2  0  0  0  0  0  0  0  0  0
    2.2646   -0.7120   -0.4888 N   0  0  0  0  0  0  0  0  0  0  0  0
    3.5612   -0.2815   -0.2093 C   0  0  0  0  0  0  0  0  0  0  0  0
    4.2625   -0.8391    0.6621 O   0  0  0  0  0  0  0  0  0  0  0  0
    4.0898    0.8689   -0.9848 C   0  0  0  0  0  0  0  0  0  0  0  0
    5.4872    1.1496   -0.4760 C   0  0  0  0  0  0  0  0  0  0  0  0
    6.0754    2.2148   -1.1335 O   0  0  0  0  0  0  0  0  0  0  0  0
    0.2066   -1.3008    0.4498 C   0  0  0  0  0  0  0  0  0  0  0  0
   -0.1359   -0.2235    0.0237 O   0  0  0  0  0  0  0  0  0  0  0  0
   -0.7469   -2.1142    1.1617 N   0  0  0  0  0  0  0  0  0  0  0  0
   -2.1024   -1.6273    1.3554 C   0  0  0  0  0  0  0  0  0  0  0  0
   -2.8292   -1.3555    0.0599 C   0  0  0  0  0  0  0  0  0  0  0  0
   -4.2284   -0.8529    0.4304 C   0  0  0  0  0  0  0  0  0  0  0  0
   -4.1391    0.4130    1.2555 C   0  0  0  0  0  0  0  0  0  0  0  0
   -3.4730    1.4667    0.5433 N   0  0  0  0  0  0  0  0  0  0  0  0
   -3.9375    1.9860   -0.6750 C   0  0  0  0  0  0  0  0  0  0  0  0
   -3.1786    3.0371   -1.2862 N   0  0  0  0  0  0  0  0  0  0  0  0
   -5.0154    1.5064   -1.1986 N   0  0  0  0  0  4  0  0  0  0  0  0
  2  1  1  1
  2  3  1  0
  3  4  1  0
  4  5  1  0
  5  6  2  0
  6  7  1  0
  7  8  2  0
  2  9  1  0
  9 10  1  0
 10 11  2  0
 11 12  1  0
 12 13  2  0
 13 14  1  0
 14 15  2  0
 15 16  1  0
 16 17  1  0
 17 18  2  0
 18 19  1  0
 19 20  2  0
 20 21  1  0
 20 22  1  0
 22 23  2  0
 23 24  1  0
 15 25  1  0
 25 26  2  0
 25 27  1  0
 27 28  1  0
 27 29  1  0
 29 30  2  0
 32 31  1  1
 32 33  1  0
 33 34  1  0
 34 35  2  0
 34 36  1  0
 36 37  1  0
 37 38  1  0
 32 39  1  0
 39 40  2  0
 39 41  1  0
 41 42  1  0
 42 43  1  0
 43 44  1  0
 44 45  1  0
 45 46  1  0
 46 47  1  0
 47 48  1  0
 47 49  2  0
  8  4  1  0
 30 10  1  0
 29 13  1  0
 23 17  1  0
M  CHG  1  49   1
M  END

