
     RDKit          3D

 64 69  0  0  0  0  0  0  0  0999 V2000
    4.1870   -1.5935    1.7517 C   0  0  0  0  0  0  0  0  0  0  0  0
    4.8718   -1.1175    0.3024 C   0  0  2  0  0  0  0  0  0  0  0  0
    5.8259    0.0231    1.0641 C   0  0  0  0  0  0  0  0  0  0  0  0
    6.5700    0.6296    0.0097 N   0  0  0  0  0  0  0  0  0  0  0  0
    6.1834    1.6913   -0.6779 N   0  0  0  0  0  0  0  0  0  0  0  0
    7.1462    1.9854   -1.6019 C   0  0  0  0  0  0  0  0  0  0  0  0
    8.1103    1.0781   -1.4488 N   0  0  0  0  0  0  0  0  0  0  0  0
    7.7325    0.2804   -0.4740 N   0  0  0  0  0  0  0  0  0  0  0  0
    3.7382   -0.0630   -0.0203 N   0  0  0  0  0  0  0  0  0  0  0  0
    2.4298   -0.5240   -0.1382 C   0  0  0  0  0  0  0  0  0  0  0  0
    2.0431   -1.7926   -0.0012 N   0  0  0  0  0  0  0  0  0  0  0  0
    0.7478   -2.1457   -0.1336 C   0  0  0  0  0  0  0  0  0  0  0  0
   -0.1938   -1.1937   -0.4131 C   0  0  0  0  0  0  0  0  0  0  0  0
   -1.5374   -1.4861   -0.5616 C   0  0  0  0  0  0  0  0  0  0  0  0
   -2.4716   -0.5080   -0.8441 C   0  0  0  0  0  0  0  0  0  0  0  0
   -3.7654   -0.9113   -0.9686 O   0  0  0  0  0  0  0  0  0  0  0  0
   -4.8350   -0.4960   -0.2129 C   0  0  0  0  0  0  0  0  0  0  0  0
   -5.8792    0.1191   -0.8798 C   0  0  0  0  0  0  0  0  0  0  0  0
   -6.9842    0.5625   -0.1956 C   0  0  0  0  0  0  0  0  0  0  0  0
   -7.0170    0.3730    1.1831 C   0  0  0  0  0  0  0  0  0  0  0  0
   -8.1062    0.8148    1.8265 F   0  0  0  0  0  0  0  0  0  0  0  0
   -5.9682   -0.2424    1.8368 C   0  0  0  0  0  0  0  0  0  0  0  0
   -4.8668   -0.6829    1.1450 C   0  0  0  0  0  0  0  0  0  0  0  0
   -3.8090   -1.2912    1.7215 F   0  0  0  0  0  0  0  0  0  0  0  0
   -2.0185    0.7771   -0.9740 C   0  0  0  0  0  0  0  0  0  0  0  0
   -2.8381    1.6799   -1.2286 O   0  0  0  0  0  0  0  0  0  0  0  0
   -0.7157    1.0737   -0.8320 N   0  0  0  0  0  0  0  0  0  0  0  0
   -0.2704    2.4356   -0.9747 C   0  0  0  0  0  0  0  0  0  0  0  0
    0.1951    0.1255   -0.5574 C   0  0  0  0  0  0  0  0  0  0  0  0
    1.4954    0.3990   -0.4123 N   0  0  0  0  0  0  0  0  0  0  0  0
    6.0699    4.9446   -0.2987 N   0  0  0  0  0  0  0  0  0  0  0  0
    6.3563    3.6051   -0.6821 C   0  0  0  0  0  0  0  0  0  0  0  0
    6.5804    3.3055   -1.9167 N   0  0  0  0  0  4  0  0  0  0  0  0
    6.4068    2.5660    0.2600 N   0  0  0  0  0  0  0  0  0  0  0  0
    6.6800    1.1871    0.0259 C   0  0  0  0  0  0  0  0  0  0  0  0
    5.6763    0.5482   -0.9166 C   0  0  0  0  0  0  0  0  0  0  0  0
    4.2973    0.6649   -0.3234 C   0  0  0  0  0  0  0  0  0  0  0  0
    4.1934   -0.0170    1.0245 C   0  0  0  0  0  0  0  0  0  0  0  0
    2.8160    0.1692    1.4862 N   0  0  0  0  0  0  0  0  0  0  0  0
    1.6960   -0.3060    0.7822 C   0  0  0  0  0  0  0  0  0  0  0  0
    1.8430   -0.9088   -0.2721 O   0  0  0  0  0  0  0  0  0  0  0  0
    0.2497   -0.0439    1.3833 C   0  0  2  0  0  0  0  0  0  0  0  0
    0.2304   -1.3216    2.4307 C   0  0  0  0  0  0  0  0  0  0  0  0
    0.3796   -2.5467    1.6721 C   0  0  0  0  0  0  0  0  0  0  0  0
   -0.6133   -3.3171    1.1274 C   0  0  0  0  0  0  0  0  0  0  0  0
   -0.3901   -4.4720    0.4195 C   0  0  0  0  0  0  0  0  0  0  0  0
    0.8936   -4.9510    0.2010 C   0  0  0  0  0  0  0  0  0  0  0  0
    1.1381   -6.1147   -0.5119 O   0  0  0  0  0  0  0  0  0  0  0  0
    1.9071   -4.1820    0.7461 C   0  0  0  0  0  0  0  0  0  0  0  0
    1.6536   -3.0276    1.4523 C   0  0  0  0  0  0  0  0  0  0  0  0
   -0.5748   -0.7817    0.2665 N   0  0  0  0  0  0  0  0  0  0  0  0
   -1.3445    0.1067   -0.5174 C   0  0  0  0  0  0  0  0  0  0  0  0
   -1.3052    1.3343   -0.2686 O   0  0  0  0  0  0  0  0  0  0  0  0
   -2.2062   -0.3684   -1.6347 C   0  0  0  0  0  0  0  0  0  0  0  0
   -2.9509    0.7425   -2.3191 C   0  0  0  0  0  0  0  0  0  0  0  0
   -3.8488    1.4705   -1.3957 C   0  0  0  0  0  0  0  0  0  0  0  0
   -3.5840    2.7213   -0.9001 C   0  0  0  0  0  0  0  0  0  0  0  0
   -4.6029    3.0930   -0.0998 N   0  0  0  0  0  0  0  0  0  0  0  0
   -5.5373    2.1133   -0.0543 C   0  0  0  0  0  0  0  0  0  0  0  0
   -6.7296    2.0040    0.6011 C   0  0  0  0  0  0  0  0  0  0  0  0
   -7.4822    0.8610    0.4542 C   0  0  0  0  0  0  0  0  0  0  0  0
   -7.0301   -0.1531   -0.3453 C   0  0  0  0  0  0  0  0  0  0  0  0
   -5.8172   -0.0250   -1.0027 C   0  0  0  0  0  0  0  0  0  0  0  0
   -5.0504    1.0996   -0.8737 C   0  0  0  0  0  0  0  0  0  0  0  0
  2  1  1  1
  2  3  1  0
  3  4  1  0
  4  5  1  0
  5  6  2  0
  6  7  1  0
  7  8  2  0
  2  9  1  0
  9 10  1  0
 10 11  2  0
 11 12  1  0
 12 13  2  0
 13 14  1  0
 14 15  2  0
 15 16  1  0
 16 17  1  0
 17 18  2  0
 18 19  1  0
 19 20  2  0
 20 21  1  0
 20 22  1  0
 22 23  2  0
 23 24  1  0
 15 25  1  0
 25 26  2  0
 25 27  1  0
 27 28  1  0
 27 29  1  0
 29 30  2  0
 31 32  1  0
 32 33  2  0
 32 34  1  0
 34 35  1  0
 35 36  1  0
 36 37  1  0
 37 38  1  0
 38 39  1  0
 39 40  1  0
 40 41  2  0
 40 42  1  0
 42 43  1  1
 43 44  1  0
 44 45  2  0
 45 46  1  0
 46 47  2  0
 47 48  1  0
 47 49  1  0
 49 50  2  0
 42 51  1  0
 51 52  1  0
 52 53  2  0
 52 54  1  0
 54 55  1  0
 55 56  1  0
 56 57  2  0
 57 58  1  0
 58 59  1  0
 59 60  2  0
 60 61  1  0
 61 62  2  0
 62 63  1  0
 63 64  2  0
  8  4  1  0
 30 10  1  0
 50 44  1  0
 64 56  1  0
 29 13  1  0
 64 59  1  0
 23 17  1  0
M  CHG  1  33   1
M  END

