
     RDKit          3D

 53 55  0  0  0  0  0  0  0  0999 V2000
   -2.8642    1.8232   -2.2201 C   0  0  0  0  0  0  0  0  0  0  0  0
   -1.9285    0.6738   -2.2991 C   0  0  0  0  0  0  0  0  0  0  0  0
   -1.5915    0.1774   -3.6418 C   0  0  0  0  0  0  0  0  0  0  0  0
   -0.6792    0.9150   -1.4303 C   0  0  0  0  0  0  0  0  0  0  0  0
    0.1366   -0.4745   -1.7106 C   0  0  2  0  0  0  0  0  0  0  0  0
   -0.8774   -1.5090   -1.1867 N   0  0  0  0  0  0  0  0  0  0  0  0
   -1.7148   -1.2149   -0.0891 C   0  0  0  0  0  0  0  0  0  0  0  0
   -1.4572   -0.0581    0.2962 O   0  0  0  0  0  0  0  0  0  0  0  0
   -2.6415   -2.1914    0.3714 C   0  0  0  0  0  0  0  0  0  0  0  0
   -3.5639   -2.1683    1.3981 C   0  0  0  0  0  0  0  0  0  0  0  0
   -4.6926   -1.3865    1.7105 C   0  0  0  0  0  0  0  0  0  0  0  0
   -4.5520    0.0186    1.9801 C   0  0  0  0  0  0  0  0  0  0  0  0
   -5.7077    0.8969    1.8948 N   0  0  0  0  0  0  0  0  0  0  0  0
   -3.4910    0.5885    2.2985 O   0  0  0  0  0  0  0  0  0  0  0  0
    1.0631   -0.3775   -0.4603 C   0  0  0  0  0  0  0  0  0  0  0  0
    0.9381   -1.0084    0.5578 O   0  0  0  0  0  0  0  0  0  0  0  0
    2.1120    0.5445   -0.6037 N   0  0  0  0  0  0  0  0  0  0  0  0
    3.0614    0.7470    0.4837 C   0  0  0  0  0  0  0  0  0  0  0  0
    4.1125    1.7523    0.1825 C   0  0  0  0  0  0  0  0  0  0  0  0
    4.8799    1.2671   -1.0289 C   0  0  0  0  0  0  0  0  0  0  0  0
    5.5068   -0.0880   -0.7075 C   0  0  0  0  0  0  0  0  0  0  0  0
    6.4501    0.0562    0.4770 C   0  0  0  0  0  0  0  0  0  0  0  0
    7.5010    1.0161    0.1355 N   0  0  0  0  0  4  0  0  0  0  0  0
    5.5864    2.5762   -1.4645 C   0  0  0  0  0  0  0  0  0  0  0  0
    4.0612    2.3649   -0.8520 C   0  0  2  0  0  0  0  0  0  0  0  0
    4.5838    1.8874    0.6363 C   0  0  0  0  0  0  0  0  0  0  0  0
    5.3786    0.7284    0.4906 N   0  0  0  0  0  0  0  0  0  0  0  0
    5.0457   -0.5638    0.5045 N   0  0  0  0  0  0  0  0  0  0  0  0
    6.1553   -1.2957    0.3246 C   0  0  0  0  0  0  0  0  0  0  0  0
    7.1948   -0.4517    0.1966 N   0  0  0  0  0  0  0  0  0  0  0  0
    6.6875    0.7528    0.3019 N   0  0  0  0  0  0  0  0  0  0  0  0
    3.9266    0.8980   -1.4174 N   0  0  0  0  0  0  0  0  0  0  0  0
    2.6566    0.2955   -1.0896 C   0  0  0  0  0  0  0  0  0  0  0  0
    2.3983   -0.9543   -1.5051 N   0  0  0  0  0  0  0  0  0  0  0  0
    1.2535   -1.5850   -1.2471 C   0  0  0  0  0  0  0  0  0  0  0  0
    0.2593   -0.9354   -0.5108 C   0  0  0  0  0  0  0  0  0  0  0  0
   -0.9362   -1.5416   -0.2190 C   0  0  0  0  0  0  0  0  0  0  0  0
   -1.8765   -0.8573    0.5072 C   0  0  0  0  0  0  0  0  0  0  0  0
   -3.0629   -1.4661    0.7938 O   0  0  0  0  0  0  0  0  0  0  0  0
   -4.3093   -1.0009    0.4064 C   0  0  0  0  0  0  0  0  0  0  0  0
   -4.5029    0.1508   -0.3264 C   0  0  0  0  0  0  0  0  0  0  0  0
   -5.7728    0.5595   -0.6804 C   0  0  0  0  0  0  0  0  0  0  0  0
   -6.9063   -0.1439   -0.3308 C   0  0  0  0  0  0  0  0  0  0  0  0
   -8.1355    0.2934   -0.6994 F   0  0  0  0  0  0  0  0  0  0  0  0
   -6.7075   -1.2950    0.4022 C   0  0  0  0  0  0  0  0  0  0  0  0
   -5.4398   -1.7070    0.7580 C   0  0  0  0  0  0  0  0  0  0  0  0
   -5.2681   -2.8514    1.4846 F   0  0  0  0  0  0  0  0  0  0  0  0
   -1.5757    0.4157    0.9131 C   0  0  0  0  0  0  0  0  0  0  0  0
   -2.3982    1.0943    1.5825 O   0  0  0  0  0  0  0  0  0  0  0  0
   -0.4033    0.9991    0.6221 N   0  0  0  0  0  0  0  0  0  0  0  0
   -0.1300    2.3750    1.0846 C   0  0  0  0  0  0  0  0  0  0  0  0
    0.5275    0.3420   -0.0881 C   0  0  0  0  0  0  0  0  0  0  0  0
    1.7100    0.9161   -0.3877 N   0  0  0  0  0  0  0  0  0  0  0  0
  1  2  1  0
  2  3  1  0
  2  4  1  0
  5  4  1  1
  5  6  1  0
  6  7  1  0
  7  8  2  0
  7  9  1  0
  9 10  1  0
 10 11  1  0
 11 12  1  0
 12 13  1  0
 12 14  2  0
  5 15  1  0
 15 16  2  0
 15 17  1  0
 17 18  1  0
 18 19  1  0
 19 20  1  0
 20 21  1  0
 21 22  1  0
 22 23  1  0
 25 24  1  6
 25 26  1  0
 26 27  1  0
 27 28  1  0
 28 29  2  0
 29 30  1  0
 30 31  2  0
 25 32  1  0
 32 33  1  0
 33 34  2  0
 34 35  1  0
 35 36  2  0
 36 37  1  0
 37 38  2  0
 38 39  1  0
 39 40  1  0
 40 41  2  0
 41 42  1  0
 42 43  2  0
 43 44  1  0
 43 45  1  0
 45 46  2  0
 46 47  1  0
 38 48  1  0
 48 49  2  0
 48 50  1  0
 50 51  1  0
 50 52  1  0
 52 53  2  0
 31 27  1  0
 53 33  1  0
 52 36  1  0
 46 40  1  0
M  CHG  1  23   1
M  END

