
     RDKit          3D

 49 51  0  0  0  0  0  0  0  0999 V2000
   -0.9354   -4.5912   -0.1497 C   0  0  0  0  0  0  0  0  0  0  0  0
   -0.8599   -3.3791    0.7384 C   0  0  0  0  0  0  0  0  0  0  0  0
   -0.2123   -2.2467    0.0132 C   0  0  0  0  0  0  0  0  0  0  0  0
    0.1560   -2.4284   -1.1689 O   0  0  0  0  0  0  0  0  0  0  0  0
   -0.0037   -0.9866    0.6105 N   0  0  0  0  0  0  0  0  0  0  0  0
    0.7053    0.0656   -0.3869 C   0  0  1  0  0  0  0  0  0  0  0  0
    0.0804    1.3590    0.4968 C   0  0  0  0  0  0  0  0  0  0  0  0
   -1.3986    0.9979    0.2844 C   0  0  0  0  0  0  0  0  0  0  0  0
   -1.7565    1.0029   -1.1763 C   0  0  0  0  0  0  0  0  0  0  0  0
   -3.1537    0.6135   -1.2747 N   0  0  0  0  0  0  0  0  0  0  0  0
   -4.1523    1.3934   -0.6047 C   0  0  0  0  0  0  0  0  0  0  0  0
   -5.5426    1.0628   -0.6687 N   0  0  0  0  0  0  0  0  0  0  0  0
   -3.6916    2.4204    0.0607 N   0  0  0  0  0  4  0  0  0  0  0  0
    2.1196    0.0732    0.4006 C   0  0  0  0  0  0  0  0  0  0  0  0
    2.1520   -0.1247    1.6001 O   0  0  0  0  0  0  0  0  0  0  0  0
    3.2553    0.3214   -0.4281 N   0  0  0  0  0  0  0  0  0  0  0  0
    4.5458    0.3326    0.2287 C   0  0  0  0  0  0  0  0  0  0  0  0
    4.4712    1.4540    1.2551 C   0  0  0  0  0  0  0  0  0  0  0  0
    4.2209    2.6598    0.5620 O   0  0  0  0  0  0  0  0  0  0  0  0
    2.9937   -1.5619    1.7239 C   0  0  0  0  0  0  0  0  0  0  0  0
    4.0833   -1.3600    0.4722 C   0  0  2  0  0  0  0  0  0  0  0  0
    5.3298   -1.0673    1.5273 C   0  0  0  0  0  0  0  0  0  0  0  0
    6.4902   -0.8396    0.7047 N   0  0  0  0  0  0  0  0  0  0  0  0
    6.8207    0.3672    0.2771 N   0  0  0  0  0  0  0  0  0  0  0  0
    7.9366    0.3135   -0.4678 C   0  0  0  0  0  0  0  0  0  0  0  0
    8.3018   -0.9648   -0.4982 N   0  0  0  0  0  0  0  0  0  0  0  0
    7.4050   -1.6559    0.2247 N   0  0  0  0  0  0  0  0  0  0  0  0
    3.7350    0.1762    0.2979 N   0  0  0  0  0  0  0  0  0  0  0  0
    2.3913    0.4670   -0.0227 C   0  0  0  0  0  0  0  0  0  0  0  0
    2.1275    1.7798   -0.1640 N   0  0  0  0  0  0  0  0  0  0  0  0
    0.9016    2.2421   -0.4688 C   0  0  0  0  0  0  0  0  0  0  0  0
   -0.0966    1.2980   -0.6346 C   0  0  0  0  0  0  0  0  0  0  0  0
   -1.3652    1.6852   -0.9444 C   0  0  0  0  0  0  0  0  0  0  0  0
   -2.3662    0.7526   -1.1115 C   0  0  0  0  0  0  0  0  0  0  0  0
   -3.6297    1.2130   -1.4247 O   0  0  0  0  0  0  0  0  0  0  0  0
   -4.6885    0.9441   -0.5850 C   0  0  0  0  0  0  0  0  0  0  0  0
   -5.7738    0.2265   -1.0698 C   0  0  0  0  0  0  0  0  0  0  0  0
   -6.8701   -0.0820   -0.2920 C   0  0  0  0  0  0  0  0  0  0  0  0
   -6.9156    0.3256    1.0202 C   0  0  0  0  0  0  0  0  0  0  0  0
   -8.0022    0.0193    1.7895 F   0  0  0  0  0  0  0  0  0  0  0  0
   -5.8550    1.0378    1.5269 C   0  0  0  0  0  0  0  0  0  0  0  0
   -4.7544    1.3431    0.7327 C   0  0  0  0  0  0  0  0  0  0  0  0
   -3.7094    2.0423    1.2244 F   0  0  0  0  0  0  0  0  0  0  0  0
   -2.0151   -0.5683   -0.9501 C   0  0  0  0  0  0  0  0  0  0  0  0
   -2.9079   -1.4294   -1.0974 O   0  0  0  0  0  0  0  0  0  0  0  0
   -0.7691   -0.9688   -0.6446 N   0  0  0  0  0  0  0  0  0  0  0  0
   -0.4416   -2.3650   -0.4838 C   0  0  0  0  0  0  0  0  0  0  0  0
    0.1997   -0.0470   -0.4840 C   0  0  0  0  0  0  0  0  0  0  0  0
    1.4444   -0.4611   -0.1780 N   0  0  0  0  0  0  0  0  0  0  0  0
  1  2  1  0
  2  3  1  0
  3  4  2  0
  3  5  1  0
  5  6  1  0
  6  7  1  1
  7  8  1  0
  8  9  1  0
  9 10  1  0
 10 11  1  0
 11 12  1  0
 11 13  2  0
  6 14  1  0
 14 15  2  0
 14 16  1  0
 16 17  1  0
 17 18  1  0
 18 19  1  0
 21 20  1  1
 21 22  1  0
 22 23  1  0
 23 24  1  0
 24 25  2  0
 25 26  1  0
 26 27  2  0
 21 28  1  0
 28 29  1  0
 29 30  2  0
 30 31  1  0
 31 32  2  0
 32 33  1  0
 33 34  2  0
 34 35  1  0
 35 36  1  0
 36 37  2  0
 37 38  1  0
 38 39  2  0
 39 40  1  0
 39 41  1  0
 41 42  2  0
 42 43  1  0
 34 44  1  0
 44 45  2  0
 44 46  1  0
 46 47  1  0
 46 48  1  0
 48 49  2  0
 27 23  1  0
 49 29  1  0
 48 32  1  0
 42 36  1  0
M  CHG  1  13   1
M  END

