
     RDKit          3D

 44 46  0  0  0  0  0  0  0  0999 V2000
    3.4207    1.6435   -0.7307 C   0  0  0  0  0  0  0  0  0  0  0  0
    3.3313    0.7753    0.5281 C   0  0  0  0  0  0  0  0  0  0  0  0
    4.7547    0.5811    1.0038 C   0  0  0  0  0  0  0  0  0  0  0  0
    2.7381   -0.5598    0.1152 C   0  0  0  0  0  0  0  0  0  0  0  0
    1.4011   -0.4087   -0.4669 C   0  0  0  0  0  0  0  0  0  0  0  0
    0.8847    0.7305   -0.5725 O   0  0  0  0  0  0  0  0  0  0  0  0
    0.6998   -1.5403   -0.9057 N   0  0  0  0  0  0  0  0  0  0  0  0
   -0.6228   -1.4720   -1.4904 C   0  0  0  0  0  0  0  0  0  0  0  0
   -1.6148   -0.8858   -0.5685 C   0  0  0  0  0  0  0  0  0  0  0  0
   -1.2597   -0.5219    0.5604 O   0  0  0  0  0  0  0  0  0  0  0  0
   -2.9363   -0.7487   -0.9775 N   0  0  0  0  0  0  0  0  0  0  0  0
   -4.0559   -0.2243   -0.3058 C   0  0  0  0  0  0  0  0  0  0  0  0
   -3.9071    1.2131    0.0422 C   0  0  0  0  0  0  0  0  0  0  0  0
   -2.8336    1.4180    0.8664 O   0  0  0  0  0  0  0  0  0  0  0  0
    3.6129    1.0618    3.6333 C   0  0  0  0  0  0  0  0  0  0  0  0
    4.6253    0.0570    2.7878 C   0  0  2  0  0  0  0  0  0  0  0  0
    4.6438    1.0246    1.4486 C   0  0  0  0  0  0  0  0  0  0  0  0
    5.5177    0.2627    0.5771 N   0  0  0  0  0  0  0  0  0  0  0  0
    6.8305    0.4058    0.5273 N   0  0  0  0  0  0  0  0  0  0  0  0
    7.3336   -0.4481   -0.3806 C   0  0  0  0  0  0  0  0  0  0  0  0
    6.3047   -1.1323   -0.9011 N   0  0  0  0  0  0  0  0  0  0  0  0
    5.2229   -0.6779   -0.3003 N   0  0  0  0  0  0  0  0  0  0  0  0
    3.4792   -0.8794    2.2609 N   0  0  0  0  0  0  0  0  0  0  0  0
    2.4403   -0.3388    1.5193 C   0  0  0  0  0  0  0  0  0  0  0  0
    2.3187    0.9709    1.1956 N   0  0  0  0  0  0  0  0  0  0  0  0
    1.2844    1.4327    0.4717 C   0  0  0  0  0  0  0  0  0  0  0  0
    0.2868    0.5680    0.0225 C   0  0  0  0  0  0  0  0  0  0  0  0
   -0.7837    1.0043   -0.7187 C   0  0  0  0  0  0  0  0  0  0  0  0
   -1.7464    0.0773   -1.1346 C   0  0  0  0  0  0  0  0  0  0  0  0
   -2.8423    0.4570   -1.8809 O   0  0  0  0  0  0  0  0  0  0  0  0
   -4.1367    0.2708   -1.4345 C   0  0  0  0  0  0  0  0  0  0  0  0
   -4.3278   -0.3100   -0.2060 C   0  0  0  0  0  0  0  0  0  0  0  0
   -5.5806   -0.5344    0.3187 C   0  0  0  0  0  0  0  0  0  0  0  0
   -6.6962   -0.1653   -0.4092 C   0  0  0  0  0  0  0  0  0  0  0  0
   -7.9594   -0.3650    0.0640 F   0  0  0  0  0  0  0  0  0  0  0  0
   -6.4831    0.4149   -1.6375 C   0  0  0  0  0  0  0  0  0  0  0  0
   -5.2337    0.6439   -2.1717 C   0  0  0  0  0  0  0  0  0  0  0  0
   -5.0912    1.2295   -3.4082 F   0  0  0  0  0  0  0  0  0  0  0  0
   -1.5791   -1.2464   -0.7803 C   0  0  0  0  0  0  0  0  0  0  0  0
   -2.4560   -2.0960   -1.1583 O   0  0  0  0  0  0  0  0  0  0  0  0
   -0.5188   -1.6375   -0.0538 N   0  0  0  0  0  0  0  0  0  0  0  0
   -0.3736   -3.0369    0.3014 C   0  0  0  0  0  0  0  0  0  0  0  0
    0.4282   -0.7579    0.3615 C   0  0  0  0  0  0  0  0  0  0  0  0
    1.4797   -1.1670    1.0859 N   0  0  0  0  0  0  0  0  0  0  0  0
  1  2  1  0
  2  3  1  0
  2  4  1  0
  4  5  1  0
  5  6  2  0
  5  7  1  0
  7  8  1  0
  8  9  1  0
  9 10  2  0
  9 11  1  0
 11 12  1  0
 12 13  1  0
 13 14  1  0
 16 15  1  1
 16 17  1  0
 17 18  1  0
 18 19  1  0
 19 20  2  0
 20 21  1  0
 21 22  2  0
 16 23  1  0
 23 24  1  0
 24 25  2  0
 25 26  1  0
 26 27  2  0
 27 28  1  0
 28 29  2  0
 29 30  1  0
 30 31  1  0
 31 32  2  0
 32 33  1  0
 33 34  2  0
 34 35  1  0
 34 36  1  0
 36 37  2  0
 37 38  1  0
 29 39  1  0
 39 40  2  0
 39 41  1  0
 41 42  1  0
 41 43  1  0
 43 44  2  0
 22 18  1  0
 44 24  1  0
 43 27  1  0
 37 31  1  0
M  END

