
     RDKit          3D

 42 44  0  0  0  0  0  0  0  0999 V2000
    2.9055    1.6519    0.8888 C   0  0  0  0  0  0  0  0  0  0  0  0
    2.8113    0.6052   -0.1875 C   0  0  0  0  0  0  0  0  0  0  0  0
    1.5866   -0.1545   -0.0195 N   0  0  0  0  0  0  0  0  0  0  0  0
    1.2450   -1.2123   -0.9049 C   0  0  0  0  0  0  0  0  0  0  0  0
    2.0500   -1.4639   -1.8429 O   0  0  0  0  0  0  0  0  0  0  0  0
    0.0192   -2.0233   -0.7926 C   0  0  0  0  0  0  0  0  0  0  0  0
   -0.7777   -1.5899    0.3391 N   0  0  0  0  0  0  0  0  0  0  0  0
   -1.2377   -0.2510    0.3492 C   0  0  0  0  0  0  0  0  0  0  0  0
   -0.9458    0.4929   -0.5987 O   0  0  0  0  0  0  0  0  0  0  0  0
   -2.0608    0.2993    1.4573 C   0  0  0  0  0  0  0  0  0  0  0  0
   -2.4253    1.7302    1.2470 C   0  0  0  0  0  0  0  0  0  0  0  0
   -3.1704    1.9155    0.0647 O   0  0  0  0  0  0  0  0  0  0  0  0
    5.7134   -1.0817   -1.9276 C   0  0  0  0  0  0  0  0  0  0  0  0
    4.2217   -0.4156   -1.5997 C   0  0  2  0  0  0  0  0  0  0  0  0
    4.3842   -0.7201    0.0321 C   0  0  0  0  0  0  0  0  0  0  0  0
    5.5413   -0.0048    0.4304 N   0  0  0  0  0  0  0  0  0  0  0  0
    5.5427    1.2307    0.8606 N   0  0  0  0  0  0  0  0  0  0  0  0
    6.8134    1.5796    1.1460 C   0  0  0  0  0  0  0  0  0  0  0  0
    7.5636    0.5116    0.8710 N   0  0  0  0  0  0  0  0  0  0  0  0
    6.7708   -0.4379    0.4381 N   0  0  0  0  0  0  0  0  0  0  0  0
    3.4738   -1.7764   -1.8538 N   0  0  0  0  0  0  0  0  0  0  0  0
    2.0713   -1.7515   -1.6941 C   0  0  0  0  0  0  0  0  0  0  0  0
    1.2902   -2.8188   -1.8722 N   0  0  0  0  0  0  0  0  0  0  0  0
   -0.0443   -2.7559   -1.7105 C   0  0  0  0  0  0  0  0  0  0  0  0
   -0.6930   -1.5870   -1.3508 C   0  0  0  0  0  0  0  0  0  0  0  0
   -2.0584   -1.4839   -1.1759 C   0  0  0  0  0  0  0  0  0  0  0  0
   -2.6630   -0.2910   -0.8151 C   0  0  0  0  0  0  0  0  0  0  0  0
   -4.0395   -0.1888   -0.6391 O   0  0  0  0  0  0  0  0  0  0  0  0
   -4.6143    0.1840    0.5430 C   0  0  0  0  0  0  0  0  0  0  0  0
   -5.4046    1.3206    0.5491 C   0  0  0  0  0  0  0  0  0  0  0  0
   -6.0179    1.7591    1.7048 C   0  0  0  0  0  0  0  0  0  0  0  0
   -5.8056    1.0136    2.8459 C   0  0  0  0  0  0  0  0  0  0  0  0
   -6.4065    1.4434    3.9779 F   0  0  0  0  0  0  0  0  0  0  0  0
   -5.0210   -0.1166    2.8447 C   0  0  0  0  0  0  0  0  0  0  0  0
   -4.4093   -0.5513    1.6849 C   0  0  0  0  0  0  0  0  0  0  0  0
   -3.6333   -1.6511    1.6370 F   0  0  0  0  0  0  0  0  0  0  0  0
   -1.8039    0.7791   -0.6449 C   0  0  0  0  0  0  0  0  0  0  0  0
   -2.3032    1.8865   -0.3167 O   0  0  0  0  0  0  0  0  0  0  0  0
   -0.4595    0.6730   -0.8182 N   0  0  0  0  0  0  0  0  0  0  0  0
    0.4222    1.8188   -0.6318 C   0  0  0  0  0  0  0  0  0  0  0  0
    0.1220   -0.4875   -1.1685 C   0  0  0  0  0  0  0  0  0  0  0  0
    1.4469   -0.6214   -1.3466 N   0  0  0  0  0  0  0  0  0  0  0  0
  1  2  1  0
  2  3  1  0
  3  4  1  0
  4  5  2  0
  4  6  1  0
  6  7  1  0
  7  8  1  0
  8  9  2  0
  8 10  1  0
 10 11  1  0
 11 12  1  0
 14 13  1  6
 14 15  1  0
 15 16  1  0
 16 17  1  0
 17 18  2  0
 18 19  1  0
 19 20  2  0
 14 21  1  0
 21 22  1  0
 22 23  2  0
 23 24  1  0
 24 25  2  0
 25 26  1  0
 26 27  2  0
 27 28  1  0
 28 29  1  0
 29 30  2  0
 30 31  1  0
 31 32  2  0
 32 33  1  0
 32 34  1  0
 34 35  2  0
 35 36  1  0
 27 37  1  0
 37 38  2  0
 37 39  1  0
 39 40  1  0
 39 41  1  0
 41 42  2  0
 20 16  1  0
 42 22  1  0
 41 25  1  0
 35 29  1  0
M  END

