
     RDKit          3D

 50 53  0  0  0  0  0  0  0  0999 V2000
    2.3820    0.1384   -2.9024 C   0  0  0  0  0  0  0  0  0  0  0  0
    3.0899    0.6573   -1.6916 C   0  0  0  0  0  0  0  0  0  0  0  0
    4.5808    0.5844   -1.7710 C   0  0  0  0  0  0  0  0  0  0  0  0
    2.5661    1.9703   -1.1946 C   0  0  0  0  0  0  0  0  0  0  0  0
    1.0948    1.7803   -0.8381 C   0  0  0  0  0  0  0  0  0  0  0  0
    1.0346    0.7479    0.2058 N   0  0  0  0  0  0  0  0  0  0  0  0
    1.6915    0.9398    1.4299 C   0  0  0  0  0  0  0  0  0  0  0  0
    2.3275    2.0070    1.6109 O   0  0  0  0  0  0  0  0  0  0  0  0
    1.6844   -0.0485    2.5401 C   0  0  0  0  0  0  0  0  0  0  0  0
    0.9063   -1.2258    2.1725 N   0  0  0  0  0  0  0  0  0  0  0  0
   -0.4759   -1.1124    1.8395 C   0  0  0  0  0  0  0  0  0  0  0  0
   -0.9855    0.0146    1.8743 O   0  0  0  0  0  0  0  0  0  0  0  0
   -1.2417   -2.2949    1.4742 C   0  0  0  0  0  0  0  0  0  0  0  0
   -2.6386   -1.9915    1.0595 C   0  0  0  0  0  0  0  0  0  0  0  0
   -2.6461   -1.1251   -0.1538 C   0  0  0  0  0  0  0  0  0  0  0  0
   -2.5910   -1.7418   -1.4109 C   0  0  0  0  0  0  0  0  0  0  0  0
   -2.6162   -0.9602   -2.5391 C   0  0  0  0  0  0  0  0  0  0  0  0
   -2.6933    0.4151   -2.5271 C   0  0  0  0  0  0  0  0  0  0  0  0
   -2.7465    1.0002   -1.2798 C   0  0  0  0  0  0  0  0  0  0  0  0
   -2.7231    0.2449   -0.1326 C   0  0  0  0  0  0  0  0  0  0  0  0
    4.1614   -0.1146   -0.1267 C   0  0  0  0  0  0  0  0  0  0  0  0
    4.4015    1.3524    0.6179 C   0  0  2  0  0  0  0  0  0  0  0  0
    5.9318    0.9468    1.1209 C   0  0  0  0  0  0  0  0  0  0  0  0
    6.6617    0.6780   -0.0801 N   0  0  0  0  0  0  0  0  0  0  0  0
    7.3771    1.4558   -0.8685 N   0  0  0  0  0  0  0  0  0  0  0  0
    7.8852    0.7502   -1.8981 C   0  0  0  0  0  0  0  0  0  0  0  0
    7.4639   -0.4995   -1.7293 N   0  0  0  0  0  0  0  0  0  0  0  0
    6.7317   -0.5309   -0.6370 N   0  0  0  0  0  0  0  0  0  0  0  0
    3.7429    0.8563    1.9740 N   0  0  0  0  0  0  0  0  0  0  0  0
    2.3833    0.4461    1.8046 C   0  0  0  0  0  0  0  0  0  0  0  0
    1.7576    0.0172    2.8879 N   0  0  0  0  0  0  0  0  0  0  0  0
    0.4840   -0.4061    2.9180 C   0  0  0  0  0  0  0  0  0  0  0  0
   -0.2347   -0.3918    1.7111 C   0  0  0  0  0  0  0  0  0  0  0  0
   -1.5287   -0.8038    1.6590 C   0  0  0  0  0  0  0  0  0  0  0  0
   -2.2697   -0.7929    0.4363 C   0  0  0  0  0  0  0  0  0  0  0  0
   -3.5224   -1.2087    0.4597 O   0  0  0  0  0  0  0  0  0  0  0  0
   -4.7778   -0.7935    0.2724 C   0  0  0  0  0  0  0  0  0  0  0  0
   -5.6056   -0.7840    1.4655 C   0  0  0  0  0  0  0  0  0  0  0  0
   -6.8899   -0.3875    1.4010 C   0  0  0  0  0  0  0  0  0  0  0  0
   -7.4622    0.0198    0.2157 C   0  0  0  0  0  0  0  0  0  0  0  0
   -8.7575    0.4198    0.1545 F   0  0  0  0  0  0  0  0  0  0  0  0
   -6.7019    0.0191   -0.9245 C   0  0  0  0  0  0  0  0  0  0  0  0
   -5.3602   -0.3895   -0.8901 C   0  0  0  0  0  0  0  0  0  0  0  0
   -4.6748   -0.4084   -2.0597 F   0  0  0  0  0  0  0  0  0  0  0  0
   -1.5501   -0.3400   -0.6219 C   0  0  0  0  0  0  0  0  0  0  0  0
   -2.0162   -0.2565   -1.7852 O   0  0  0  0  0  0  0  0  0  0  0  0
   -0.2481    0.0702   -0.5456 N   0  0  0  0  0  0  0  0  0  0  0  0
    0.4442    0.5460   -1.7532 C   0  0  0  0  0  0  0  0  0  0  0  0
    0.4427    0.0593    0.6019 C   0  0  0  0  0  0  0  0  0  0  0  0
    1.7309    0.4704    0.6542 N   0  0  0  0  0  0  0  0  0  0  0  0
  1  2  1  0
  2  3  1  0
  2  4  1  0
  4  5  1  0
  5  6  1  0
  6  7  1  0
  7  8  2  0
  7  9  1  0
  9 10  1  0
 10 11  1  0
 11 12  2  0
 11 13  1  0
 13 14  1  0
 14 15  1  0
 15 16  2  0
 16 17  1  0
 17 18  2  0
 18 19  1  0
 19 20  2  0
 22 21  1  6
 22 23  1  0
 23 24  1  0
 24 25  1  0
 25 26  2  0
 26 27  1  0
 27 28  2  0
 22 29  1  0
 29 30  1  0
 30 31  2  0
 31 32  1  0
 32 33  2  0
 33 34  1  0
 34 35  2  0
 35 36  1  0
 36 37  1  0
 37 38  2  0
 38 39  1  0
 39 40  2  0
 40 41  1  0
 40 42  1  0
 42 43  2  0
 43 44  1  0
 35 45  1  0
 45 46  2  0
 45 47  1  0
 47 48  1  0
 47 49  1  0
 49 50  2  0
 20 15  1  0
 28 24  1  0
 50 30  1  0
 49 33  1  0
 43 37  1  0
M  END

