
     RDKit          3D

 49 51  0  0  0  0  0  0  0  0999 V2000
   -3.9481   -0.7555    0.1189 C   0  0  0  0  0  0  0  0  0  0  0  0
   -4.0251   -0.1391    1.6619 C   0  0  2  0  0  0  0  0  0  0  0  0
   -5.6277    0.3022    1.6078 C   0  0  0  0  0  0  0  0  0  0  0  0
   -6.4011   -0.8356    1.3710 N   0  0  0  0  0  0  0  0  0  0  0  0
   -6.7522   -1.3063    0.1782 N   0  0  0  0  0  0  0  0  0  0  0  0
   -7.4963   -2.4168    0.3222 C   0  0  0  0  0  0  0  0  0  0  0  0
   -7.6028   -2.6307    1.6455 N   0  0  0  0  0  0  0  0  0  0  0  0
   -6.9374   -1.6691    2.2619 N   0  0  0  0  0  0  0  0  0  0  0  0
   -3.5535    1.2993    1.1859 N   0  0  0  0  0  0  0  0  0  0  0  0
   -2.2614    1.2877    0.5721 C   0  0  0  0  0  0  0  0  0  0  0  0
   -1.7991    2.4575    0.1474 N   0  0  0  0  0  0  0  0  0  0  0  0
   -0.5948    2.6095   -0.4531 C   0  0  0  0  0  0  0  0  0  0  0  0
    0.2030    1.4868   -0.6373 C   0  0  0  0  0  0  0  0  0  0  0  0
    1.4370    1.5943   -1.2442 C   0  0  0  0  0  0  0  0  0  0  0  0
    2.1882    0.4512   -1.4025 C   0  0  0  0  0  0  0  0  0  0  0  0
    3.4308    0.5488   -2.0119 O   0  0  0  0  0  0  0  0  0  0  0  0
    4.6078    0.1783   -1.3605 C   0  0  0  0  0  0  0  0  0  0  0  0
    5.4445   -0.8122   -1.8376 C   0  0  0  0  0  0  0  0  0  0  0  0
    6.6093   -1.1791   -1.1933 C   0  0  0  0  0  0  0  0  0  0  0  0
    6.9795   -0.5508   -0.0256 C   0  0  0  0  0  0  0  0  0  0  0  0
    8.1280   -0.9343    0.5817 F   0  0  0  0  0  0  0  0  0  0  0  0
    6.1586    0.4437    0.4719 C   0  0  0  0  0  0  0  0  0  0  0  0
    4.9816    0.8067   -0.1892 C   0  0  0  0  0  0  0  0  0  0  0  0
    4.1780    1.7912    0.3117 F   0  0  0  0  0  0  0  0  0  0  0  0
    1.6913   -0.7411   -0.9575 C   0  0  0  0  0  0  0  0  0  0  0  0
    2.3607   -1.7817   -1.0948 O   0  0  0  0  0  0  0  0  0  0  0  0
    0.4716   -0.8122   -0.3638 N   0  0  0  0  0  0  0  0  0  0  0  0
   -0.0528   -2.0968    0.1105 C   0  0  0  0  0  0  0  0  0  0  0  0
   -0.2972    0.2822   -0.1885 C   0  0  0  0  0  0  0  0  0  0  0  0
   -1.5202    0.1863    0.4111 N   0  0  0  0  0  0  0  0  0  0  0  0
   -6.1324   -0.8527    0.7932 O   0  0  0  0  0  1  0  0  0  0  0  0
   -4.9299   -0.8601    0.0429 C   0  0  0  0  0  0  0  0  0  0  0  0
   -4.1986   -1.8442    0.1956 O   0  0  0  0  0  0  0  0  0  0  0  0
   -4.6849    0.2517   -0.8000 C   0  0  0  0  0  0  0  0  0  0  0  0
   -3.5269    0.5524   -1.5310 C   0  0  0  0  0  0  0  0  0  0  0  0
   -2.2710    0.8309   -1.1074 N   0  0  0  0  0  0  0  0  0  0  0  0
   -1.3093    0.1381   -0.3943 C   0  0  0  0  0  0  0  0  0  0  0  0
   -1.4257   -1.0000    0.0361 O   0  0  0  0  0  0  0  0  0  0  0  0
    0.0426    0.9519   -0.1467 C   0  0  2  0  0  0  0  0  0  0  0  0
    0.6922    0.5236   -1.5802 C   0  0  0  0  0  0  0  0  0  0  0  0
    0.1697    1.4159   -2.5162 O   0  0  0  0  0  0  0  0  0  0  0  0
    0.7670   -0.1533    0.6548 N   0  0  0  0  0  0  0  0  0  0  0  0
    2.1541   -0.3129    0.4755 C   0  0  0  0  0  0  0  0  0  0  0  0
    2.7745    0.4454   -0.3400 O   0  0  0  0  0  0  0  0  0  0  0  0
    2.8401   -1.3779    1.2610 C   0  0  0  0  0  0  0  0  0  0  0  0
    4.3236   -1.2996    0.8706 C   0  0  0  0  0  0  0  0  0  0  0  0
    4.7698    0.0631    1.2475 C   0  0  0  0  0  0  0  0  0  0  0  0
    3.9915    0.9924    1.9121 O   0  0  0  0  0  1  0  0  0  0  0  0
    5.9537    0.3723    0.9266 O   0  0  0  0  0  0  0  0  0  0  0  0
  2  1  1  6
  2  3  1  0
  3  4  1  0
  4  5  1  0
  5  6  2  0
  6  7  1  0
  7  8  2  0
  2  9  1  0
  9 10  1  0
 10 11  2  0
 11 12  1  0
 12 13  2  0
 13 14  1  0
 14 15  2  0
 15 16  1  0
 16 17  1  0
 17 18  2  0
 18 19  1  0
 19 20  2  0
 20 21  1  0
 20 22  1  0
 22 23  2  0
 23 24  1  0
 15 25  1  0
 25 26  2  0
 25 27  1  0
 27 28  1  0
 27 29  1  0
 29 30  2  0
 31 32  1  0
 32 33  2  0
 32 34  1  0
 34 35  1  0
 35 36  1  0
 36 37  1  0
 37 38  2  0
 37 39  1  0
 39 40  1  6
 40 41  1  0
 39 42  1  0
 42 43  1  0
 43 44  2  0
 43 45  1  0
 45 46  1  0
 46 47  1  0
 47 48  1  0
 47 49  2  0
  8  4  1  0
 30 10  1  0
 29 13  1  0
 23 17  1  0
M  RAD  2  31   2  48   2
M  END

