
     RDKit          3D

 52 57  0  0  0  0  0  0  0  0999 V2000
    4.4451   -0.0803   -3.0343 C   0  0  0  0  0  0  0  0  0  0  0  0
    4.9964    0.7536   -1.7286 C   0  0  2  0  0  0  0  0  0  0  0  0
    4.5797   -0.4069   -0.6557 C   0  0  0  0  0  0  0  0  0  0  0  0
    4.9829    0.1160    0.6375 N   0  0  0  0  0  0  0  0  0  0  0  0
    6.1424   -0.0272    1.2562 N   0  0  0  0  0  0  0  0  0  0  0  0
    6.0863    0.6185    2.4288 C   0  0  0  0  0  0  0  0  0  0  0  0
    4.8692    1.1653    2.5260 N   0  0  0  0  0  0  0  0  0  0  0  0
    4.2159    0.8468    1.4260 N   0  0  0  0  0  0  0  0  0  0  0  0
    3.6940    1.5885   -1.5619 N   0  0  0  0  0  0  0  0  0  0  0  0
    2.4966    0.8567   -1.4591 C   0  0  0  0  0  0  0  0  0  0  0  0
    2.4653   -0.4680   -1.5034 N   0  0  0  0  0  0  0  0  0  0  0  0
    1.3445   -1.1942   -1.4085 C   0  0  0  0  0  0  0  0  0  0  0  0
    0.1496   -0.5290   -1.2556 C   0  0  0  0  0  0  0  0  0  0  0  0
   -1.0221   -1.2510   -1.1552 C   0  0  0  0  0  0  0  0  0  0  0  0
   -2.1957   -0.5418   -1.0030 C   0  0  0  0  0  0  0  0  0  0  0  0
   -3.3691   -1.2781   -0.9028 O   0  0  0  0  0  0  0  0  0  0  0  0
   -4.1433   -1.1569    0.2456 C   0  0  0  0  0  0  0  0  0  0  0  0
   -5.4410   -0.7192    0.2220 C   0  0  0  0  0  0  0  0  0  0  0  0
   -6.1898   -0.6074    1.3781 C   0  0  0  0  0  0  0  0  0  0  0  0
   -5.6375   -0.9403    2.6062 C   0  0  0  0  0  0  0  0  0  0  0  0
   -6.3602   -0.8354    3.7470 F   0  0  0  0  0  0  0  0  0  0  0  0
   -4.3301   -1.3783    2.6051 C   0  0  0  0  0  0  0  0  0  0  0  0
   -3.5846   -1.4910    1.4663 C   0  0  0  0  0  0  0  0  0  0  0  0
   -2.2913   -1.9259    1.4791 F   0  0  0  0  0  0  0  0  0  0  0  0
   -2.1532    0.8322   -0.9581 C   0  0  0  0  0  0  0  0  0  0  0  0
   -3.2526    1.4591   -0.8169 O   0  0  0  0  0  0  0  0  0  0  0  0
   -1.0028    1.5358   -1.0570 N   0  0  0  0  0  0  0  0  0  0  0  0
   -0.9643    2.9845   -1.0090 C   0  0  0  0  0  0  0  0  0  0  0  0
    0.1593    0.8434   -1.2073 C   0  0  0  0  0  0  0  0  0  0  0  0
    1.3104    1.5147   -1.3074 N   0  0  0  0  0  0  0  0  0  0  0  0
   -5.0258   -1.3787   -1.1015 O   0  0  0  0  0  1  0  0  0  0  0  0
   -4.1294   -0.3637   -1.0191 C   0  0  0  0  0  0  0  0  0  0  0  0
   -4.1108    0.5887   -1.7118 O   0  0  0  0  0  0  0  0  0  0  0  0
   -3.1210   -0.6920    0.1696 C   0  0  2  0  0  0  0  0  0  0  0  0
   -4.0758    0.0243    1.3580 C   0  0  0  0  0  0  0  0  0  0  0  0
   -4.3704    1.3233    0.6725 C   0  0  0  0  0  0  0  0  0  0  0  0
   -3.0755    1.6952    0.0017 C   0  0  0  0  0  0  0  0  0  0  0  0
   -2.2034    0.5917    0.0713 N   0  0  0  0  0  0  0  0  0  0  0  0
   -0.7915    0.5209    0.0635 C   0  0  0  0  0  0  0  0  0  0  0  0
   -0.1828    1.5438   -0.0138 O   0  0  0  0  0  0  0  0  0  0  0  0
   -0.2005   -0.9433    0.1609 C   0  0  2  0  0  0  0  0  0  0  0  0
    0.0430   -0.9411    1.8358 C   0  0  0  0  0  0  0  0  0  0  0  0
    1.1247   -1.9765    1.8270 C   0  0  0  0  0  0  0  0  0  0  0  0
    1.6117   -2.1451    0.4332 C   0  0  0  0  0  0  0  0  0  0  0  0
    1.2588   -0.8184   -0.1530 N   0  0  0  0  0  0  0  0  0  0  0  0
    2.1668   -0.0000   -0.7266 C   0  0  0  0  0  0  0  0  0  0  0  0
    1.8413    1.0683   -1.2275 O   0  0  0  0  0  0  0  0  0  0  0  0
    3.7246   -0.4514   -0.7480 C   0  0  2  0  0  0  0  0  0  0  0  0
    4.0379    0.2242    0.7443 C   0  0  0  0  0  0  0  0  0  0  0  0
    5.4950    0.5799    0.5252 C   0  0  0  0  0  0  0  0  0  0  0  0
    5.6654    0.7345   -0.9710 C   0  0  0  0  0  0  0  0  0  0  0  0
    4.3177    0.8155   -1.5023 N   0  0  0  0  0  0  0  0  0  0  0  0
  2  1  1  6
  2  3  1  0
  3  4  1  0
  4  5  1  0
  5  6  2  0
  6  7  1  0
  7  8  2  0
  2  9  1  0
  9 10  1  0
 10 11  2  0
 11 12  1  0
 12 13  2  0
 13 14  1  0
 14 15  2  0
 15 16  1  0
 16 17  1  0
 17 18  2  0
 18 19  1  0
 19 20  2  0
 20 21  1  0
 20 22  1  0
 22 23  2  0
 23 24  1  0
 15 25  1  0
 25 26  2  0
 25 27  1  0
 27 28  1  0
 27 29  1  0
 29 30  2  0
 31 32  1  0
 32 33  2  0
 34 32  1  6
 34 35  1  0
 35 36  1  0
 36 37  1  0
 37 38  1  0
 38 39  1  0
 39 40  2  0
 41 39  1  1
 41 42  1  0
 42 43  1  0
 43 44  1  0
 44 45  1  0
 45 46  1  0
 46 47  2  0
 48 46  1  6
 48 49  1  0
 49 50  1  0
 50 51  1  0
 51 52  1  0
  8  4  1  0
 30 10  1  0
 38 34  1  0
 45 41  1  0
 52 48  1  0
 29 13  1  0
 23 17  1  0
M  RAD  1  31   2
M  END

