
     RDKit          3D

 51 53  0  0  0  0  0  0  0  0999 V2000
   -6.5031    1.4267    1.7445 C   0  0  0  0  0  0  0  0  0  0  0  0
   -5.4071    0.7659    0.9969 C   0  0  0  0  0  0  0  0  0  0  0  0
   -4.7470   -0.3354    1.7485 C   0  0  0  0  0  0  0  0  0  0  0  0
   -4.5311    1.7233    0.3475 C   0  0  0  0  0  0  0  0  0  0  0  0
   -3.4175    1.2317   -0.4205 C   0  0  0  0  0  0  0  0  0  0  0  0
   -2.3357    0.4714    0.2209 C   0  0  0  0  0  0  0  0  0  0  0  0
   -2.2068    0.3056    1.4612 O   0  0  0  0  0  0  0  0  0  0  0  0
   -1.3709   -0.1154   -0.6272 N   0  0  0  0  0  0  0  0  0  0  0  0
   -0.2143   -0.9253    0.0379 C   0  0  2  0  0  0  0  0  0  0  0  0
    0.9967   -0.3287   -0.7826 C   0  0  0  0  0  0  0  0  0  0  0  0
    0.8983    0.5042   -1.6493 O   0  0  0  0  0  0  0  0  0  0  0  0
    2.2935   -0.8488   -0.4335 N   0  0  0  0  0  0  0  0  0  0  0  0
    3.4254   -0.3170   -1.1705 C   0  0  0  0  0  0  0  0  0  0  0  0
    3.4198    1.1936   -0.8943 C   0  0  0  0  0  0  0  0  0  0  0  0
    3.5651    1.3079    0.6245 C   0  0  0  0  0  0  0  0  0  0  0  0
    4.8238    0.6803    1.0585 C   0  0  0  0  0  0  0  0  0  0  0  0
    5.2005    0.6434    2.4148 N   0  0  0  0  0  0  0  0  0  0  0  0
    5.5710    0.1680    0.1989 O   0  0  0  0  0  0  0  0  0  0  0  0
   -0.4680   -2.3925   -0.8121 C   0  0  1  0  0  0  0  0  0  0  0  0
    0.3286   -2.0347   -2.1803 C   0  0  0  0  0  0  0  0  0  0  0  0
    0.6790   -3.1240   -0.1612 O   0  0  0  0  0  0  0  0  0  0  0  0
    3.7945   -0.3515    1.1874 C   0  0  0  0  0  0  0  0  0  0  0  0
    4.4192   -1.6555    0.4077 C   0  0  2  0  0  0  0  0  0  0  0  0
    5.9415   -1.0610    0.3920 C   0  0  0  0  0  0  0  0  0  0  0  0
    5.9456    0.1781   -0.3171 N   0  0  0  0  0  0  0  0  0  0  0  0
    6.1454    0.3028   -1.6183 N   0  0  0  0  0  0  0  0  0  0  0  0
    6.0932    1.5908   -2.0078 C   0  0  0  0  0  0  0  0  0  0  0  0
    5.8472    2.2601   -0.8600 N   0  0  0  0  0  0  0  0  0  0  0  0
    5.7624    1.4000    0.1380 N   0  0  0  0  0  0  0  0  0  0  0  0
    4.0187   -1.1427   -1.0175 N   0  0  0  0  0  0  0  0  0  0  0  0
    2.6151   -0.9603   -1.1508 C   0  0  0  0  0  0  0  0  0  0  0  0
    2.1563   -0.5155   -2.3543 N   0  0  0  0  0  0  0  0  0  0  0  0
    0.8353   -0.3274   -2.5291 C   0  0  0  0  0  0  0  0  0  0  0  0
   -0.0496   -0.5820   -1.5005 C   0  0  0  0  0  0  0  0  0  0  0  0
   -1.4037   -0.3888   -1.6810 C   0  0  0  0  0  0  0  0  0  0  0  0
   -2.2267   -0.6611   -0.6173 C   0  0  0  0  0  0  0  0  0  0  0  0
   -3.5661   -0.4854   -0.7498 O   0  0  0  0  0  0  0  0  0  0  0  0
   -4.3449    0.3752    0.0140 C   0  0  0  0  0  0  0  0  0  0  0  0
   -3.8137    1.1623    1.0165 C   0  0  0  0  0  0  0  0  0  0  0  0
   -4.6028    2.0108    1.7643 C   0  0  0  0  0  0  0  0  0  0  0  0
   -5.9583    2.1179    1.5516 C   0  0  0  0  0  0  0  0  0  0  0  0
   -6.7395    2.9611    2.2954 F   0  0  0  0  0  0  0  0  0  0  0  0
   -6.4931    1.3367    0.5547 C   0  0  0  0  0  0  0  0  0  0  0  0
   -5.7046    0.4896   -0.1917 C   0  0  0  0  0  0  0  0  0  0  0  0
   -6.2241   -0.2936   -1.1870 F   0  0  0  0  0  0  0  0  0  0  0  0
   -1.7477   -1.1157    0.6095 C   0  0  0  0  0  0  0  0  0  0  0  0
   -2.5474   -1.3528    1.5603 O   0  0  0  0  0  0  0  0  0  0  0  0
   -0.4216   -1.2938    0.7530 N   0  0  0  0  0  0  0  0  0  0  0  0
    0.1148   -1.7606    1.9993 C   0  0  0  0  0  0  0  0  0  0  0  0
    0.4156   -1.0360   -0.2713 C   0  0  0  0  0  0  0  0  0  0  0  0
    1.7388   -1.2018   -0.1641 N   0  0  0  0  0  0  0  0  0  0  0  0
  1  2  1  0
  2  3  1  0
  2  4  1  0
  4  5  1  0
  5  6  1  0
  6  7  2  0
  6  8  1  0
  9  8  1  6
  9 10  1  0
 10 11  2  0
 10 12  1  0
 12 13  1  0
 13 14  1  0
 14 15  1  0
 15 16  1  0
 16 17  1  0
 16 18  2  0
  9 19  1  0
 19 20  1  6
 19 21  1  0
 23 22  1  1
 23 24  1  0
 24 25  1  0
 25 26  1  0
 26 27  2  0
 27 28  1  0
 28 29  2  0
 23 30  1  0
 30 31  1  0
 31 32  2  0
 32 33  1  0
 33 34  2  0
 34 35  1  0
 35 36  2  0
 36 37  1  0
 37 38  1  0
 38 39  2  0
 39 40  1  0
 40 41  2  0
 41 42  1  0
 41 43  1  0
 43 44  2  0
 44 45  1  0
 36 46  1  0
 46 47  2  0
 46 48  1  0
 48 49  1  0
 48 50  1  0
 50 51  2  0
 29 25  1  0
 51 31  1  0
 50 34  1  0
 44 38  1  0
M  END

