
     RDKit          3D

 56 59  0  0  0  0  0  0  0  0999 V2000
   -4.1921    3.6223   -4.3520 C   0  0  0  0  0  0  0  0  0  0  0  0
   -3.8777    4.5476   -3.1943 C   0  0  0  0  0  0  0  0  0  0  0  0
   -4.0593    3.5669   -1.8852 C   0  0  2  0  0  0  0  0  0  0  0  0
   -3.6785    4.7685   -0.8341 C   0  0  0  0  0  0  0  0  0  0  0  0
   -2.5437    2.9887   -1.9686 C   0  0  0  0  0  0  0  0  0  0  0  0
   -2.3581    2.0296   -0.8731 C   0  0  0  0  0  0  0  0  0  0  0  0
   -3.3475    1.8591   -0.1132 O   0  0  0  0  0  0  0  0  0  0  0  0
   -1.1538    1.3098   -0.6408 N   0  0  0  0  0  0  0  0  0  0  0  0
   -1.2187    0.3437    0.6020 C   0  0  1  0  0  0  0  0  0  0  0  0
   -1.7192   -0.9257   -0.3171 C   0  0  0  0  0  0  0  0  0  0  0  0
   -1.8621   -1.9991    0.6983 C   0  0  0  0  0  0  0  0  0  0  0  0
   -3.0444   -2.2283    1.4221 C   0  0  0  0  0  0  0  0  0  0  0  0
   -2.8262   -3.2846    2.2406 N   0  0  0  0  0  0  0  0  0  0  0  0
   -1.5680   -3.6883    2.0313 C   0  0  0  0  0  0  0  0  0  0  0  0
   -0.9755   -2.9306    1.1116 N   0  0  0  0  0  0  0  0  0  0  0  0
    0.3159   -0.0581    0.5759 C   0  0  0  0  0  0  0  0  0  0  0  0
    1.0756    0.3482   -0.2788 O   0  0  0  0  0  0  0  0  0  0  0  0
    0.6916   -0.8934    1.5975 N   0  0  0  0  0  0  0  0  0  0  0  0
    1.9417   -1.4373    1.8838 C   0  0  0  0  0  0  0  0  0  0  0  0
    3.0391   -0.4878    2.1528 C   0  0  0  0  0  0  0  0  0  0  0  0
    3.5012    0.4132    1.0820 C   0  0  0  0  0  0  0  0  0  0  0  0
    4.0914   -0.3236   -0.1104 C   0  0  0  0  0  0  0  0  0  0  0  0
    5.2499   -1.1235    0.3183 N   0  0  0  0  0  0  0  0  0  0  0  0
    5.9311   -1.8874   -0.6629 C   0  0  0  0  0  0  0  0  0  0  0  0
    7.0458   -2.6598   -0.2589 N   0  0  0  0  0  0  0  0  0  0  0  0
    5.5411   -1.8699   -1.8637 N   0  0  0  0  0  4  0  0  0  0  0  0
    3.9055   -0.0434   -0.2542 C   0  0  0  0  0  0  0  0  0  0  0  0
    4.0185   -0.5776    1.2901 C   0  0  2  0  0  0  0  0  0  0  0  0
    5.5189   -1.1964    1.1839 C   0  0  0  0  0  0  0  0  0  0  0  0
    6.4501   -0.2050    0.8371 N   0  0  0  0  0  0  0  0  0  0  0  0
    6.7914    0.1166   -0.4165 N   0  0  0  0  0  0  0  0  0  0  0  0
    7.7010    1.1004   -0.3417 C   0  0  0  0  0  0  0  0  0  0  0  0
    7.8986    1.3618    0.9632 N   0  0  0  0  0  0  0  0  0  0  0  0
    7.1352    0.5649    1.6754 N   0  0  0  0  0  0  0  0  0  0  0  0
    3.3232   -1.9300    0.9760 N   0  0  0  0  0  0  0  0  0  0  0  0
    2.0016   -1.8139    0.4694 C   0  0  0  0  0  0  0  0  0  0  0  0
    1.2871   -2.9354    0.1557 N   0  0  0  0  0  0  0  0  0  0  0  0
    0.0381   -2.8854   -0.3252 C   0  0  0  0  0  0  0  0  0  0  0  0
   -0.5402   -1.6306   -0.5065 C   0  0  0  0  0  0  0  0  0  0  0  0
   -1.8253   -1.5414   -1.0000 C   0  0  0  0  0  0  0  0  0  0  0  0
   -2.3915   -0.2993   -1.1771 C   0  0  0  0  0  0  0  0  0  0  0  0
   -3.6897   -0.1510   -1.6737 O   0  0  0  0  0  0  0  0  0  0  0  0
   -4.6465    0.4777   -0.9240 C   0  0  0  0  0  0  0  0  0  0  0  0
   -5.2623    1.6185   -1.4096 C   0  0  0  0  0  0  0  0  0  0  0  0
   -6.2292    2.2294   -0.6202 C   0  0  0  0  0  0  0  0  0  0  0  0
   -6.5850    1.7361    0.6148 C   0  0  0  0  0  0  0  0  0  0  0  0
   -7.5431    2.3759    1.3518 F   0  0  0  0  0  0  0  0  0  0  0  0
   -5.9618    0.6065    1.0736 C   0  0  0  0  0  0  0  0  0  0  0  0
   -4.9916   -0.0268    0.3080 C   0  0  0  0  0  0  0  0  0  0  0  0
   -4.3554   -1.1457    0.7315 F   0  0  0  0  0  0  0  0  0  0  0  0
   -1.6195    0.7915   -0.8423 C   0  0  0  0  0  0  0  0  0  0  0  0
   -2.1357    1.9485   -1.0029 O   0  0  0  0  0  0  0  0  0  0  0  0
   -0.3735    0.7029   -0.3639 N   0  0  0  0  0  0  0  0  0  0  0  0
    0.4141    1.8708   -0.0204 C   0  0  0  0  0  0  0  0  0  0  0  0
    0.2042   -0.5162   -0.1816 C   0  0  0  0  0  0  0  0  0  0  0  0
    1.4627   -0.6035    0.3017 N   0  0  0  0  0  0  0  0  0  0  0  0
  1  2  1  0
  2  3  1  0
  3  4  1  1
  3  5  1  0
  5  6  1  0
  6  7  2  0
  6  8  1  0
  8  9  1  0
  9 10  1  6
 10 11  1  0
 11 12  2  0
 12 13  1  0
 13 14  1  0
 14 15  2  0
  9 16  1  0
 16 17  2  0
 16 18  1  0
 18 19  1  0
 19 20  1  0
 20 21  1  0
 21 22  1  0
 22 23  1  0
 23 24  1  0
 24 25  1  0
 24 26  2  0
 28 27  1  6
 28 29  1  0
 29 30  1  0
 30 31  1  0
 31 32  2  0
 32 33  1  0
 33 34  2  0
 28 35  1  0
 35 36  1  0
 36 37  2  0
 37 38  1  0
 38 39  2  0
 39 40  1  0
 40 41  2  0
 41 42  1  0
 42 43  1  0
 43 44  2  0
 44 45  1  0
 45 46  2  0
 46 47  1  0
 46 48  1  0
 48 49  2  0
 49 50  1  0
 41 51  1  0
 51 52  2  0
 51 53  1  0
 53 54  1  0
 53 55  1  0
 55 56  2  0
 15 11  1  0
 34 30  1  0
 56 36  1  0
 55 39  1  0
 49 43  1  0
M  CHG  1  26   1
M  END

