
     RDKit          3D

 56 59  0  0  0  0  0  0  0  0999 V2000
   -3.9068    3.6460    1.6999 C   0  0  0  0  0  0  0  0  0  0  0  0
   -3.3754    4.4207    0.5509 C   0  0  0  0  0  0  0  0  0  0  0  0
   -2.5697    3.4121   -0.4450 C   0  0  2  0  0  0  0  0  0  0  0  0
   -3.8574    2.4536   -0.7424 C   0  0  0  0  0  0  0  0  0  0  0  0
   -1.9805    2.4791    0.7557 C   0  0  0  0  0  0  0  0  0  0  0  0
   -1.2140    1.5072   -0.0152 N   0  0  0  0  0  0  0  0  0  0  0  0
   -0.4983    0.5125    0.6389 C   0  0  0  0  0  0  0  0  0  0  0  0
   -0.4889    0.4268    1.8374 O   0  0  0  0  0  0  0  0  0  0  0  0
    0.2758   -0.4489   -0.3481 C   0  0  2  0  0  0  0  0  0  0  0  0
   -0.5412   -1.8524    0.0921 C   0  0  0  0  0  0  0  0  0  0  0  0
   -1.9560   -1.5338   -0.2257 C   0  0  0  0  0  0  0  0  0  0  0  0
   -2.5572   -1.7744   -1.4284 C   0  0  0  0  0  0  0  0  0  0  0  0
   -3.8951   -1.4349   -1.6141 C   0  0  0  0  0  0  0  0  0  0  0  0
   -4.6307   -0.8562   -0.5993 C   0  0  0  0  0  0  0  0  0  0  0  0
   -5.9479   -0.5049   -0.7347 O   0  0  0  0  0  0  0  0  0  0  0  0
   -3.9966   -0.6272    0.5994 C   0  0  0  0  0  0  0  0  0  0  0  0
   -2.6881   -0.9649    0.7645 C   0  0  0  0  0  0  0  0  0  0  0  0
    1.4342   -0.7954    0.6854 N   0  0  0  0  0  0  0  0  0  0  0  0
    2.6682   -1.1013    0.0974 C   0  0  0  0  0  0  0  0  0  0  0  0
    2.7304   -1.0746   -1.1718 O   0  0  0  0  0  0  0  0  0  0  0  0
    3.8901   -1.4491    0.8671 C   0  0  0  0  0  0  0  0  0  0  0  0
    5.0388   -1.7439   -0.0570 C   0  0  0  0  0  0  0  0  0  0  0  0
    6.3021   -2.0876    0.6581 C   0  0  0  0  0  0  0  0  0  0  0  0
    6.7475   -0.9173    1.5568 C   0  0  0  0  0  0  0  0  0  0  0  0
    6.9864    0.3276    0.7134 C   0  0  0  0  0  0  0  0  0  0  0  0
    8.0299   -0.0187   -0.2395 N   0  0  0  0  0  4  0  0  0  0  0  0
    6.0037   -1.1970    1.3803 C   0  0  0  0  0  0  0  0  0  0  0  0
    4.4888   -1.5636    0.8166 C   0  0  2  0  0  0  0  0  0  0  0  0
    4.7923   -0.9847   -0.6979 C   0  0  0  0  0  0  0  0  0  0  0  0
    5.1287    0.3810   -0.6090 N   0  0  0  0  0  0  0  0  0  0  0  0
    6.2701    1.0266   -0.4559 N   0  0  0  0  0  0  0  0  0  0  0  0
    6.0821    2.3368   -0.4283 C   0  0  0  0  0  0  0  0  0  0  0  0
    4.7638    2.5339   -0.5700 N   0  0  0  0  0  0  0  0  0  0  0  0
    4.2129    1.3600   -0.6760 N   0  0  0  0  0  0  0  0  0  0  0  0
    3.8433   -0.2251    1.3477 N   0  0  0  0  0  0  0  0  0  0  0  0
    2.4488   -0.1716    1.0305 C   0  0  0  0  0  0  0  0  0  0  0  0
    1.6984    0.8984    1.3971 N   0  0  0  0  0  0  0  0  0  0  0  0
    0.3878    1.0100    1.1305 C   0  0  0  0  0  0  0  0  0  0  0  0
   -0.2479   -0.0047    0.4497 C   0  0  0  0  0  0  0  0  0  0  0  0
   -1.5798    0.0183    0.1322 C   0  0  0  0  0  0  0  0  0  0  0  0
   -2.1739   -1.0287   -0.5551 C   0  0  0  0  0  0  0  0  0  0  0  0
   -3.5215   -1.0320   -0.8901 O   0  0  0  0  0  0  0  0  0  0  0  0
   -4.3669    0.0237   -0.5542 C   0  0  0  0  0  0  0  0  0  0  0  0
   -5.0355    0.7466   -1.5198 C   0  0  0  0  0  0  0  0  0  0  0  0
   -5.8711    1.7907   -1.1804 C   0  0  0  0  0  0  0  0  0  0  0  0
   -6.0878    2.1726    0.1280 C   0  0  0  0  0  0  0  0  0  0  0  0
   -6.9101    3.1997    0.4571 F   0  0  0  0  0  0  0  0  0  0  0  0
   -5.4152    1.4445    1.0894 C   0  0  0  0  0  0  0  0  0  0  0  0
   -4.5790    0.4000    0.7546 C   0  0  0  0  0  0  0  0  0  0  0  0
   -3.9117   -0.3226    1.7072 F   0  0  0  0  0  0  0  0  0  0  0  0
   -1.3977   -2.1051   -0.9187 C   0  0  0  0  0  0  0  0  0  0  0  0
   -1.9070   -3.0675   -1.5412 O   0  0  0  0  0  0  0  0  0  0  0  0
   -0.0707   -2.1193   -0.5978 N   0  0  0  0  0  0  0  0  0  0  0  0
    0.6787   -3.2853   -1.0142 C   0  0  0  0  0  0  0  0  0  0  0  0
    0.4874   -1.0985    0.0670 C   0  0  0  0  0  0  0  0  0  0  0  0
    1.7889   -1.1369    0.3691 N   0  0  0  0  0  0  0  0  0  0  0  0
  1  2  1  0
  2  3  1  0
  3  4  1  6
  3  5  1  0
  5  6  1  0
  6  7  1  0
  7  8  2  0
  7  9  1  0
  9 10  1  1
 10 11  1  0
 11 12  2  0
 12 13  1  0
 13 14  2  0
 14 15  1  0
 14 16  1  0
 16 17  2  0
  9 18  1  0
 18 19  1  0
 19 20  2  0
 19 21  1  0
 21 22  1  0
 22 23  1  0
 23 24  1  0
 24 25  1  0
 25 26  1  0
 28 27  1  1
 28 29  1  0
 29 30  1  0
 30 31  1  0
 31 32  2  0
 32 33  1  0
 33 34  2  0
 28 35  1  0
 35 36  1  0
 36 37  2  0
 37 38  1  0
 38 39  2  0
 39 40  1  0
 40 41  2  0
 41 42  1  0
 42 43  1  0
 43 44  2  0
 44 45  1  0
 45 46  2  0
 46 47  1  0
 46 48  1  0
 48 49  2  0
 49 50  1  0
 41 51  1  0
 51 52  2  0
 51 53  1  0
 53 54  1  0
 53 55  1  0
 55 56  2  0
 17 11  1  0
 34 30  1  0
 56 36  1  0
 55 39  1  0
 49 43  1  0
M  CHG  1  26   1
M  END

