
     RDKit          3D

 51 53  0  0  0  0  0  0  0  0999 V2000
    1.2356   -3.4602    0.1090 C   0  0  0  0  0  0  0  0  0  0  0  0
    0.3231   -2.7553   -0.8534 C   0  0  0  0  0  0  0  0  0  0  0  0
   -0.5008   -3.8288   -1.5628 C   0  0  0  0  0  0  0  0  0  0  0  0
   -0.7104   -1.8866   -0.1086 C   0  0  0  0  0  0  0  0  0  0  0  0
   -1.5202   -1.2790   -1.3788 C   0  0  2  0  0  0  0  0  0  0  0  0
   -0.3287   -0.5781   -2.0227 N   0  0  0  0  0  0  0  0  0  0  0  0
    0.6759    0.0093   -1.2963 C   0  0  0  0  0  0  0  0  0  0  0  0
    0.4638   -0.1225   -0.0682 O   0  0  0  0  0  0  0  0  0  0  0  0
    1.8713    0.7164   -1.8488 C   0  0  0  0  0  0  0  0  0  0  0  0
    2.6563    1.1580   -0.6793 C   0  0  0  0  0  0  0  0  0  0  0  0
    3.9145    1.9002   -0.9523 C   0  0  0  0  0  0  0  0  0  0  0  0
    4.4916    2.2113    0.4404 C   0  0  0  0  0  0  0  0  0  0  0  0
    4.7496    0.9081    1.1756 C   0  0  0  0  0  0  0  0  0  0  0  0
    5.2902    1.2139    2.4814 N   0  0  0  0  0  4  0  0  0  0  0  0
   -2.2720   -0.1599   -0.6155 C   0  0  0  0  0  0  0  0  0  0  0  0
   -1.8149    0.9570   -0.7017 O   0  0  0  0  0  0  0  0  0  0  0  0
   -3.3977   -0.4501    0.1150 N   0  0  0  0  0  0  0  0  0  0  0  0
   -4.2652    0.3686    0.9000 C   0  0  0  0  0  0  0  0  0  0  0  0
   -3.3377    0.9948    2.0748 C   0  0  1  0  0  0  0  0  0  0  0  0
   -2.9917    2.3706    1.2065 C   0  0  0  0  0  0  0  0  0  0  0  0
   -4.5323    1.7123    2.7234 O   0  0  0  0  0  0  0  0  0  0  0  0
    5.9255    2.1735   -0.0808 C   0  0  0  0  0  0  0  0  0  0  0  0
    4.3739    1.8528    0.3458 C   0  0  2  0  0  0  0  0  0  0  0  0
    4.7849    0.5789    1.2848 C   0  0  0  0  0  0  0  0  0  0  0  0
    5.4441   -0.3953    0.5013 N   0  0  0  0  0  0  0  0  0  0  0  0
    6.6925   -0.5838    0.2103 N   0  0  0  0  0  0  0  0  0  0  0  0
    6.7831   -1.6710   -0.5838 C   0  0  0  0  0  0  0  0  0  0  0  0
    5.5512   -2.1525   -0.7772 N   0  0  0  0  0  0  0  0  0  0  0  0
    4.7638   -1.3495   -0.1011 N   0  0  0  0  0  0  0  0  0  0  0  0
    4.0697    1.0241   -0.9479 N   0  0  0  0  0  0  0  0  0  0  0  0
    2.7299    0.5137   -0.9996 C   0  0  0  0  0  0  0  0  0  0  0  0
    2.3487   -0.2122   -2.0585 N   0  0  0  0  0  0  0  0  0  0  0  0
    1.1279   -0.7400   -2.2187 C   0  0  0  0  0  0  0  0  0  0  0  0
    0.1701   -0.5300   -1.2223 C   0  0  0  0  0  0  0  0  0  0  0  0
   -1.0973   -1.0374   -1.3156 C   0  0  0  0  0  0  0  0  0  0  0  0
   -1.9817   -0.7877   -0.2954 C   0  0  0  0  0  0  0  0  0  0  0  0
   -3.2631   -1.2966   -0.3825 O   0  0  0  0  0  0  0  0  0  0  0  0
   -4.3859   -0.4713   -0.3814 C   0  0  0  0  0  0  0  0  0  0  0  0
   -4.2873    0.9012   -0.2934 C   0  0  0  0  0  0  0  0  0  0  0  0
   -5.3946    1.7275   -0.2916 C   0  0  0  0  0  0  0  0  0  0  0  0
   -6.6691    1.2072   -0.3791 C   0  0  0  0  0  0  0  0  0  0  0  0
   -7.7883    1.9736   -0.3814 F   0  0  0  0  0  0  0  0  0  0  0  0
   -6.7693   -0.1661   -0.4671 C   0  0  0  0  0  0  0  0  0  0  0  0
   -5.6598   -0.9871   -0.4686 C   0  0  0  0  0  0  0  0  0  0  0  0
   -5.7560   -2.3459   -0.5556 F   0  0  0  0  0  0  0  0  0  0  0  0
   -1.5469   -0.0374    0.7727 C   0  0  0  0  0  0  0  0  0  0  0  0
   -2.3499    0.1881    1.6971 O   0  0  0  0  0  0  0  0  0  0  0  0
   -0.3068    0.4518    0.8512 N   0  0  0  0  0  0  0  0  0  0  0  0
    0.0987    1.2370    2.0008 C   0  0  0  0  0  0  0  0  0  0  0  0
    0.5715    0.2172   -0.1381 C   0  0  0  0  0  0  0  0  0  0  0  0
    1.8205    0.7172   -0.0462 N   0  0  0  0  0  0  0  0  0  0  0  0
  1  2  1  0
  2  3  1  0
  2  4  1  0
  5  4  1  1
  5  6  1  0
  6  7  1  0
  7  8  2  0
  7  9  1  0
  9 10  1  0
 10 11  1  0
 11 12  1  0
 12 13  1  0
 13 14  1  0
  5 15  1  0
 15 16  2  0
 15 17  1  0
 17 18  1  0
 18 19  1  0
 19 20  1  6
 19 21  1  0
 23 22  1  6
 23 24  1  0
 24 25  1  0
 25 26  1  0
 26 27  2  0
 27 28  1  0
 28 29  2  0
 23 30  1  0
 30 31  1  0
 31 32  2  0
 32 33  1  0
 33 34  2  0
 34 35  1  0
 35 36  2  0
 36 37  1  0
 37 38  1  0
 38 39  2  0
 39 40  1  0
 40 41  2  0
 41 42  1  0
 41 43  1  0
 43 44  2  0
 44 45  1  0
 36 46  1  0
 46 47  2  0
 46 48  1  0
 48 49  1  0
 48 50  1  0
 50 51  2  0
 29 25  1  0
 51 31  1  0
 50 34  1  0
 44 38  1  0
M  CHG  1  14   1
M  END

