
     RDKit          3D

 47 49  0  0  0  0  0  0  0  0999 V2000
    4.3008    0.9464    0.0946 C   0  0  0  0  0  0  0  0  0  0  0  0
    2.8709    1.3052   -0.2494 C   0  0  0  0  0  0  0  0  0  0  0  0
    2.6521    0.6353   -1.7140 C   0  0  2  0  0  0  0  0  0  0  0  0
    1.1237    1.1033   -1.8941 C   0  0  0  0  0  0  0  0  0  0  0  0
    2.3341   -0.8428   -1.1970 C   0  0  0  0  0  0  0  0  0  0  0  0
    1.1637   -0.8469   -0.2980 C   0  0  0  0  0  0  0  0  0  0  0  0
    0.5933    0.2348    0.0593 O   0  0  0  0  0  0  0  0  0  0  0  0
    0.5360   -1.9351    0.2743 N   0  0  0  0  0  0  0  0  0  0  0  0
   -0.6586   -1.8300    1.2191 C   0  0  1  0  0  0  0  0  0  0  0  0
   -0.1063   -0.5453    2.1434 C   0  0  0  0  0  0  0  0  0  0  0  0
    1.0653   -1.1072    2.6084 O   0  0  0  0  0  0  0  0  0  0  0  0
   -1.6280   -0.9412    0.3715 C   0  0  0  0  0  0  0  0  0  0  0  0
   -1.4621   -0.9759   -0.9215 O   0  0  0  0  0  0  0  0  0  0  0  0
   -2.6169   -0.1325    0.8510 N   0  0  0  0  0  0  0  0  0  0  0  0
   -3.5103    0.7037    0.0957 C   0  0  0  0  0  0  0  0  0  0  0  0
   -2.8464    1.7467   -0.7275 C   0  0  0  0  0  0  0  0  0  0  0  0
   -3.8112    2.4814   -1.4078 O   0  0  0  0  0  0  0  0  0  0  0  0
    3.6484    0.6433    0.1096 C   0  0  0  0  0  0  0  0  0  0  0  0
    4.4190   -0.6758    0.8111 C   0  0  2  0  0  0  0  0  0  0  0  0
    5.7819   -0.4961   -0.1552 C   0  0  0  0  0  0  0  0  0  0  0  0
    6.2734    0.8088    0.1487 N   0  0  0  0  0  0  0  0  0  0  0  0
    7.1300    1.1776    1.0596 N   0  0  0  0  0  0  0  0  0  0  0  0
    7.2913    2.5125    0.9779 C   0  0  0  0  0  0  0  0  0  0  0  0
    6.5050    2.9623   -0.0160 N   0  0  0  0  0  0  0  0  0  0  0  0
    5.8904    1.8935   -0.5086 N   0  0  0  0  0  0  0  0  0  0  0  0
    3.6853   -1.6867   -0.1637 N   0  0  0  0  0  0  0  0  0  0  0  0
    2.2955   -1.7304   -0.1382 C   0  0  0  0  0  0  0  0  0  0  0  0
    1.7145   -2.6028   -0.9821 N   0  0  0  0  0  0  0  0  0  0  0  0
    0.3809   -2.7460   -1.0589 C   0  0  0  0  0  0  0  0  0  0  0  0
   -0.4323   -1.9946   -0.2666 C   0  0  0  0  0  0  0  0  0  0  0  0
   -1.8126   -2.0915   -0.2949 C   0  0  0  0  0  0  0  0  0  0  0  0
   -2.5900   -1.3017    0.5341 C   0  0  0  0  0  0  0  0  0  0  0  0
   -3.9866   -1.3801    0.5252 O   0  0  0  0  0  0  0  0  0  0  0  0
   -4.6781   -0.2221    0.2020 C   0  0  0  0  0  0  0  0  0  0  0  0
   -5.5683    0.3584    1.0798 C   0  0  0  0  0  0  0  0  0  0  0  0
   -6.2457    1.5177    0.7276 C   0  0  0  0  0  0  0  0  0  0  0  0
   -6.0351    2.1022   -0.5059 C   0  0  0  0  0  0  0  0  0  0  0  0
   -6.6831    3.2407   -0.8845 F   0  0  0  0  0  0  0  0  0  0  0  0
   -5.1399    1.5102   -1.3768 C   0  0  0  0  0  0  0  0  0  0  0  0
   -4.4678    0.3580   -1.0249 C   0  0  0  0  0  0  0  0  0  0  0  0
   -3.5863   -0.2304   -1.8748 F   0  0  0  0  0  0  0  0  0  0  0  0
   -1.9906   -0.4111    1.3953 C   0  0  0  0  0  0  0  0  0  0  0  0
   -2.7229    0.2936    2.1368 O   0  0  0  0  0  0  0  0  0  0  0  0
   -0.6481   -0.3293    1.4102 N   0  0  0  0  0  0  0  0  0  0  0  0
   -0.0427    0.6191    2.3290 C   0  0  0  0  0  0  0  0  0  0  0  0
    0.1362   -1.0919    0.6082 C   0  0  0  0  0  0  0  0  0  0  0  0
    1.4783   -1.0071    0.6262 N   0  0  0  0  0  0  0  0  0  0  0  0
  1  2  1  0
  2  3  1  0
  3  4  1  1
  3  5  1  0
  5  6  1  0
  6  7  2  0
  6  8  1  0
  8  9  1  0
  9 10  1  1
 10 11  1  0
  9 12  1  0
 12 13  2  0
 12 14  1  0
 14 15  1  0
 15 16  1  0
 16 17  1  0
 19 18  1  6
 19 20  1  0
 20 21  1  0
 21 22  1  0
 22 23  2  0
 23 24  1  0
 24 25  2  0
 19 26  1  0
 26 27  1  0
 27 28  2  0
 28 29  1  0
 29 30  2  0
 30 31  1  0
 31 32  2  0
 32 33  1  0
 33 34  1  0
 34 35  2  0
 35 36  1  0
 36 37  2  0
 37 38  1  0
 37 39  1  0
 39 40  2  0
 40 41  1  0
 32 42  1  0
 42 43  2  0
 42 44  1  0
 44 45  1  0
 44 46  1  0
 46 47  2  0
 25 21  1  0
 47 27  1  0
 46 30  1  0
 40 34  1  0
M  END

