
     RDKit          3D

 50 52  0  0  0  0  0  0  0  0999 V2000
   -3.0785   -0.7459   -2.3399 C   0  0  0  0  0  0  0  0  0  0  0  0
   -2.8546   -1.0442   -0.8774 C   0  0  0  0  0  0  0  0  0  0  0  0
   -3.3028   -2.4268   -0.4828 C   0  0  0  0  0  0  0  0  0  0  0  0
   -1.3721   -0.9546   -0.5629 C   0  0  0  0  0  0  0  0  0  0  0  0
   -1.0680    0.6126   -0.9787 C   0  0  2  0  0  0  0  0  0  0  0  0
    0.4471    0.5710   -0.6130 N   0  0  0  0  0  0  0  0  0  0  0  0
    1.1786   -0.5856   -0.9461 C   0  0  0  0  0  0  0  0  0  0  0  0
    0.6511   -1.5576   -1.5100 O   0  0  0  0  0  0  0  0  0  0  0  0
    2.6195   -0.6343   -0.6096 C   0  0  0  0  0  0  0  0  0  0  0  0
    3.1653   -1.9967   -0.9656 C   0  0  0  0  0  0  0  0  0  0  0  0
    4.6495   -2.0412   -0.6261 C   0  0  0  0  0  0  0  0  0  0  0  0
    4.7760   -1.7599    0.8710 C   0  0  0  0  0  0  0  0  0  0  0  0
    4.1858   -0.3612    1.1411 C   0  0  0  0  0  0  0  0  0  0  0  0
    4.9108    0.6512    0.3815 N   0  0  0  0  0  4  0  0  0  0  0  0
   -1.6260    1.1766    0.4280 C   0  0  0  0  0  0  0  0  0  0  0  0
   -0.8919    1.4283    1.3493 O   0  0  0  0  0  0  0  0  0  0  0  0
   -3.0314    1.3148    0.3946 N   0  0  0  0  0  0  0  0  0  0  0  0
   -3.7575    1.7992    1.5327 C   0  0  0  0  0  0  0  0  0  0  0  0
   -3.4407    3.1549    2.0073 C   0  0  0  0  0  0  0  0  0  0  0  0
   -2.1602    3.3993    2.4065 O   0  0  0  0  0  0  0  0  0  0  0  0
    4.3132   -2.3765   -0.8236 C   0  0  0  0  0  0  0  0  0  0  0  0
    4.7653   -1.0220   -1.6621 C   0  0  2  0  0  0  0  0  0  0  0  0
    3.9455   -0.0247   -0.6288 C   0  0  0  0  0  0  0  0  0  0  0  0
    4.5954   -0.2742    0.6459 N   0  0  0  0  0  0  0  0  0  0  0  0
    4.2069   -1.2175    1.4703 N   0  0  0  0  0  0  0  0  0  0  0  0
    4.9942   -1.1925    2.5392 C   0  0  0  0  0  0  0  0  0  0  0  0
    5.8767   -0.1800    2.3075 N   0  0  0  0  0  0  0  0  0  0  0  0
    5.6303    0.3828    1.1443 N   0  0  0  0  0  0  0  0  0  0  0  0
    3.6754   -1.1389   -2.7266 N   0  0  0  0  0  0  0  0  0  0  0  0
    2.3138   -1.0403   -2.4602 C   0  0  0  0  0  0  0  0  0  0  0  0
    1.3883   -1.1625   -3.4378 N   0  0  0  0  0  0  0  0  0  0  0  0
    0.0991   -1.0469   -3.1365 C   0  0  0  0  0  0  0  0  0  0  0  0
   -0.3882   -0.8059   -1.8749 C   0  0  0  0  0  0  0  0  0  0  0  0
   -1.7339   -0.6898   -1.5998 C   0  0  0  0  0  0  0  0  0  0  0  0
   -2.1630   -0.4458   -0.3187 C   0  0  0  0  0  0  0  0  0  0  0  0
   -3.5114   -0.3347   -0.0724 O   0  0  0  0  0  0  0  0  0  0  0  0
   -3.9977    0.8513    0.4562 C   0  0  0  0  0  0  0  0  0  0  0  0
   -3.1974    1.9369    0.7518 C   0  0  0  0  0  0  0  0  0  0  0  0
   -3.7036    3.1106    1.2787 C   0  0  0  0  0  0  0  0  0  0  0  0
   -5.0527    3.2369    1.5309 C   0  0  0  0  0  0  0  0  0  0  0  0
   -5.5730    4.3907    2.0523 F   0  0  0  0  0  0  0  0  0  0  0  0
   -5.8615    2.1577    1.2390 C   0  0  0  0  0  0  0  0  0  0  0  0
   -5.3448    0.9859    0.7113 C   0  0  0  0  0  0  0  0  0  0  0  0
   -6.1435   -0.0762    0.4244 F   0  0  0  0  0  0  0  0  0  0  0  0
   -1.2131   -0.3238    0.6615 C   0  0  0  0  0  0  0  0  0  0  0  0
   -1.5639   -0.0989    1.8539 O   0  0  0  0  0  0  0  0  0  0  0  0
    0.1113   -0.4430    0.3622 N   0  0  0  0  0  0  0  0  0  0  0  0
    1.1086   -0.3041    1.4164 C   0  0  0  0  0  0  0  0  0  0  0  0
    0.5635   -0.6824   -0.8834 C   0  0  0  0  0  0  0  0  0  0  0  0
    1.8605   -0.8050   -1.2212 N   0  0  0  0  0  0  0  0  0  0  0  0
  1  2  1  0
  2  3  1  0
  2  4  1  0
  5  4  1  1
  5  6  1  0
  6  7  1  0
  7  8  2  0
  7  9  1  0
  9 10  1  0
 10 11  1  0
 11 12  1  0
 12 13  1  0
 13 14  1  0
  5 15  1  0
 15 16  2  0
 15 17  1  0
 17 18  1  0
 18 19  1  0
 19 20  1  0
 22 21  1  1
 22 23  1  0
 23 24  1  0
 24 25  1  0
 25 26  2  0
 26 27  1  0
 27 28  2  0
 22 29  1  0
 29 30  1  0
 30 31  2  0
 31 32  1  0
 32 33  2  0
 33 34  1  0
 34 35  2  0
 35 36  1  0
 36 37  1  0
 37 38  2  0
 38 39  1  0
 39 40  2  0
 40 41  1  0
 40 42  1  0
 42 43  2  0
 43 44  1  0
 35 45  1  0
 45 46  2  0
 45 47  1  0
 47 48  1  0
 47 49  1  0
 49 50  2  0
 28 24  1  0
 50 30  1  0
 49 33  1  0
 43 37  1  0
M  CHG  1  14   1
M  END

