
     RDKit          3D

 57 61  0  0  0  0  0  0  0  0999 V2000
    3.2192   -5.7071    0.9829 C   0  0  0  0  0  0  0  0  0  0  0  0
    4.0010   -5.5432   -0.6564 S   0  0  0  0  0  0  0  0  0  0  0  0
    2.8640   -4.6827   -1.7706 C   0  0  0  0  0  0  0  0  0  0  0  0
    2.6775   -3.2450   -1.2887 C   0  0  0  0  0  0  0  0  0  0  0  0
    2.1140   -3.3045    0.1011 C   0  0  0  0  0  0  0  0  0  0  0  0
    1.8761   -2.0348    0.7032 N   0  0  0  0  0  0  0  0  0  0  0  0
    1.0076   -1.0860    0.1694 C   0  0  0  0  0  0  0  0  0  0  0  0
    0.4009   -1.2747   -0.8350 O   0  0  0  0  0  0  0  0  0  0  0  0
    0.9518    0.2218    1.0596 C   0  0  2  0  0  0  0  0  0  0  0  0
   -0.1695   -0.2743    2.1489 C   0  0  0  0  0  0  0  0  0  0  0  0
   -1.4117   -0.5974    1.5171 C   0  0  0  0  0  0  0  0  0  0  0  0
   -1.7934   -1.9201    1.2351 C   0  0  0  0  0  0  0  0  0  0  0  0
   -2.9922   -1.9293    0.6327 N   0  0  0  0  0  0  0  0  0  0  0  0
   -3.4301   -0.6606    0.4993 C   0  0  0  0  0  0  0  0  0  0  0  0
   -4.6010   -0.1649   -0.0491 C   0  0  0  0  0  0  0  0  0  0  0  0
   -4.7842    1.1986   -0.0411 C   0  0  0  0  0  0  0  0  0  0  0  0
   -3.8139    2.0110    0.5026 C   0  0  0  0  0  0  0  0  0  0  0  0
   -2.6490    1.5196    1.0482 C   0  0  0  0  0  0  0  0  0  0  0  0
   -2.4568    0.1594    1.0442 C   0  0  0  0  0  0  0  0  0  0  0  0
   -0.0767    1.0656    0.2156 N   0  0  0  0  0  0  0  0  0  0  0  0
    0.4621    2.3524   -0.0475 C   0  0  0  0  0  0  0  0  0  0  0  0
    1.6149    2.6876    0.3779 O   0  0  0  0  0  0  0  0  0  0  0  0
   -0.2660    3.4040   -0.8320 C   0  0  0  0  0  0  0  0  0  0  0  0
    0.5614    4.6531   -0.9836 C   0  0  0  0  0  0  0  0  0  0  0  0
    1.8328    4.4232   -1.6962 C   0  0  0  0  0  0  0  0  0  0  0  0
    2.7948    5.4633   -1.9085 N   0  0  0  0  0  0  0  0  0  0  0  0
    2.0662    3.2652   -2.1292 O   0  0  0  0  0  0  0  0  0  0  0  0
    4.8584   -2.5771    1.5743 C   0  0  0  0  0  0  0  0  0  0  0  0
    5.2959   -1.5015    0.3888 C   0  0  2  0  0  0  0  0  0  0  0  0
    4.7896   -0.1798    1.2435 C   0  0  0  0  0  0  0  0  0  0  0  0
    5.1205    0.8818    0.2970 N   0  0  0  0  0  0  0  0  0  0  0  0
    6.2506    1.5656    0.1900 N   0  0  0  0  0  0  0  0  0  0  0  0
    6.0967    2.4350   -0.8181 C   0  0  0  0  0  0  0  0  0  0  0  0
    4.8750    2.2626   -1.3047 N   0  0  0  0  0  0  0  0  0  0  0  0
    4.2673    1.3090   -0.6247 N   0  0  0  0  0  0  0  0  0  0  0  0
    3.9628   -1.6283   -0.4334 N   0  0  0  0  0  0  0  0  0  0  0  0
    2.7444   -1.3511    0.1422 C   0  0  0  0  0  0  0  0  0  0  0  0
    2.5327   -0.9560    1.4130 N   0  0  0  0  0  0  0  0  0  0  0  0
    1.2917   -0.7118    1.8705 C   0  0  0  0  0  0  0  0  0  0  0  0
    0.1899   -0.8541    1.0646 C   0  0  0  0  0  0  0  0  0  0  0  0
   -1.0593   -0.6028    1.5434 C   0  0  0  0  0  0  0  0  0  0  0  0
   -2.1224   -0.7703    0.6640 C   0  0  0  0  0  0  0  0  0  0  0  0
   -3.4085   -0.5317    1.0894 O   0  0  0  0  0  0  0  0  0  0  0  0
   -4.1699    0.4330    0.4711 C   0  0  0  0  0  0  0  0  0  0  0  0
   -3.6553    1.1538   -0.5601 C   0  0  0  0  0  0  0  0  0  0  0  0
   -4.4244    2.1186   -1.1746 C   0  0  0  0  0  0  0  0  0  0  0  0
   -5.7193    2.3934   -0.7845 C   0  0  0  0  0  0  0  0  0  0  0  0
   -6.4546    3.3486   -1.4066 F   0  0  0  0  0  0  0  0  0  0  0  0
   -6.2081    1.6446    0.2626 C   0  0  0  0  0  0  0  0  0  0  0  0
   -5.4668    0.6749    0.8969 C   0  0  0  0  0  0  0  0  0  0  0  0
   -5.9726   -0.0445    1.9219 F   0  0  0  0  0  0  0  0  0  0  0  0
   -1.8621   -1.1726   -0.6170 C   0  0  0  0  0  0  0  0  0  0  0  0
   -2.8200   -1.3289   -1.4272 O   0  0  0  0  0  0  0  0  0  0  0  0
   -0.6207   -1.4192   -1.0822 N   0  0  0  0  0  0  0  0  0  0  0  0
   -0.3863   -1.8453   -2.4510 C   0  0  0  0  0  0  0  0  0  0  0  0
    0.4174   -1.2589   -0.2345 C   0  0  0  0  0  0  0  0  0  0  0  0
    1.6571   -1.4866   -0.6366 N   0  0  0  0  0  0  0  0  0  0  0  0
  1  2  1  0
  2  3  1  0
  3  4  1  0
  4  5  1  0
  5  6  1  0
  6  7  1  0
  7  8  2  0
  7  9  1  0
  9 10  1  1
 10 11  1  0
 11 12  2  0
 12 13  1  0
 13 14  1  0
 14 15  2  0
 15 16  1  0
 16 17  2  0
 17 18  1  0
 18 19  2  0
  9 20  1  0
 20 21  1  0
 21 22  2  0
 21 23  1  0
 23 24  1  0
 24 25  1  0
 25 26  1  0
 25 27  2  0
 29 28  1  1
 29 30  1  0
 30 31  1  0
 31 32  1  0
 32 33  2  0
 33 34  1  0
 34 35  2  0
 29 36  1  0
 36 37  1  0
 37 38  2  0
 38 39  1  0
 39 40  2  0
 40 41  1  0
 41 42  2  0
 42 43  1  0
 43 44  1  0
 44 45  2  0
 45 46  1  0
 46 47  2  0
 47 48  1  0
 47 49  1  0
 49 50  2  0
 50 51  1  0
 42 52  1  0
 52 53  2  0
 52 54  1  0
 54 55  1  0
 54 56  1  0
 56 57  2  0
 19 11  1  0
 35 31  1  0
 57 37  1  0
 19 14  1  0
 56 40  1  0
 50 44  1  0
M  END

