
     RDKit          3D

 51 53  0  0  0  0  0  0  0  0999 V2000
    6.3700    0.4038   -1.9897 C   0  0  0  0  0  0  0  0  0  0  0  0
    4.6570   -0.1895   -1.9420 S   0  0  0  0  0  0  0  0  0  0  0  0
    4.5903   -1.4600   -0.6295 C   0  0  0  0  0  0  0  0  0  0  0  0
    4.8538   -0.6880    0.6697 C   0  0  0  0  0  0  0  0  0  0  0  0
    3.7347    0.3275    0.7386 C   0  0  0  0  0  0  0  0  0  0  0  0
    2.4848   -0.4343    0.7663 N   0  0  0  0  0  0  0  0  0  0  0  0
    1.2168    0.1913    0.8121 C   0  0  0  0  0  0  0  0  0  0  0  0
    1.1075    1.4165    0.8326 O   0  0  0  0  0  0  0  0  0  0  0  0
   -0.0822   -0.7253    0.8335 C   0  0  2  0  0  0  0  0  0  0  0  0
   -0.1041   -1.0940   -0.7469 C   0  0  0  0  0  0  0  0  0  0  0  0
   -0.1555   -0.1146   -1.6672 C   0  0  0  0  0  0  0  0  0  0  0  0
   -0.9037    0.9557   -2.1271 C   0  0  0  0  0  0  0  0  0  0  0  0
   -0.3283    1.6908   -3.2720 N   0  0  0  0  0  0  0  0  0  0  0  0
   -2.0035    1.3919   -1.7129 O   0  0  0  0  0  0  0  0  0  0  0  0
   -1.1765    0.3794    0.7880 N   0  0  0  0  0  0  0  0  0  0  0  0
   -2.5118   -0.1106    1.0081 C   0  0  0  0  0  0  0  0  0  0  0  0
   -2.6474   -1.3360    1.2016 O   0  0  0  0  0  0  0  0  0  0  0  0
   -3.7012    0.7497    1.0123 C   0  0  0  0  0  0  0  0  0  0  0  0
   -5.0008   -0.2857    1.0848 C   0  0  1  0  0  0  0  0  0  0  0  0
   -4.5227   -0.9618    2.5292 C   0  0  0  0  0  0  0  0  0  0  0  0
   -5.8773    0.7771    1.8104 O   0  0  0  0  0  0  0  0  0  0  0  0
    5.4895    2.6112   -0.4081 C   0  0  0  0  0  0  0  0  0  0  0  0
    4.5313    1.6393    0.4957 C   0  0  2  0  0  0  0  0  0  0  0  0
    5.1401    0.2284   -0.0580 C   0  0  0  0  0  0  0  0  0  0  0  0
    6.5042    0.1268    0.2084 N   0  0  0  0  0  0  0  0  0  0  0  0
    7.0573   -0.3884    1.2884 N   0  0  0  0  0  0  0  0  0  0  0  0
    8.3873   -0.2829    1.1287 C   0  0  0  0  0  0  0  0  0  0  0  0
    8.6451    0.3004   -0.0563 N   0  0  0  0  0  0  0  0  0  0  0  0
    7.4729    0.5366   -0.5906 N   0  0  0  0  0  0  0  0  0  0  0  0
    3.3506    1.7420   -0.5165 N   0  0  0  0  0  0  0  0  0  0  0  0
    2.1724    1.0439   -0.2176 C   0  0  0  0  0  0  0  0  0  0  0  0
    2.0771    0.3137    0.9078 N   0  0  0  0  0  0  0  0  0  0  0  0
    1.0145   -0.3868    1.2931 C   0  0  0  0  0  0  0  0  0  0  0  0
   -0.0680   -0.3257    0.4191 C   0  0  0  0  0  0  0  0  0  0  0  0
   -1.2181   -1.0233    0.7372 C   0  0  0  0  0  0  0  0  0  0  0  0
   -2.2591   -0.9323   -0.1560 C   0  0  0  0  0  0  0  0  0  0  0  0
   -3.3828   -1.6409    0.1988 O   0  0  0  0  0  0  0  0  0  0  0  0
   -4.6286   -1.1186    0.4139 C   0  0  0  0  0  0  0  0  0  0  0  0
   -4.8100    0.2360    0.2708 C   0  0  0  0  0  0  0  0  0  0  0  0
   -6.0579    0.7471    0.4879 C   0  0  0  0  0  0  0  0  0  0  0  0
   -7.0955   -0.1015    0.8420 C   0  0  0  0  0  0  0  0  0  0  0  0
   -8.3056    0.4642    1.0429 F   0  0  0  0  0  0  0  0  0  0  0  0
   -6.8896   -1.4500    0.9785 C   0  0  0  0  0  0  0  0  0  0  0  0
   -5.6431   -1.9813    0.7646 C   0  0  0  0  0  0  0  0  0  0  0  0
   -5.3785   -3.3126    0.8853 F   0  0  0  0  0  0  0  0  0  0  0  0
   -2.1662   -0.1863   -1.3090 C   0  0  0  0  0  0  0  0  0  0  0  0
   -3.1602   -0.1302   -2.1116 O   0  0  0  0  0  0  0  0  0  0  0  0
   -1.0487    0.4830   -1.6040 N   0  0  0  0  0  0  0  0  0  0  0  0
   -0.8951    1.2770   -2.7921 C   0  0  0  0  0  0  0  0  0  0  0  0
    0.0132    0.4185   -0.7393 C   0  0  0  0  0  0  0  0  0  0  0  0
    1.1514    1.0929   -1.0279 N   0  0  0  0  0  0  0  0  0  0  0  0
  1  2  1  0
  2  3  1  0
  3  4  1  0
  4  5  1  0
  5  6  1  0
  6  7  1  0
  7  8  2  0
  7  9  1  0
  9 10  1  6
 10 11  1  0
 11 12  1  0
 12 13  1  0
 12 14  2  0
  9 15  1  0
 15 16  1  0
 16 17  2  0
 16 18  1  0
 18 19  1  0
 19 20  1  1
 19 21  1  0
 23 22  1  6
 23 24  1  0
 24 25  1  0
 25 26  1  0
 26 27  2  0
 27 28  1  0
 28 29  2  0
 23 30  1  0
 30 31  1  0
 31 32  2  0
 32 33  1  0
 33 34  2  0
 34 35  1  0
 35 36  2  0
 36 37  1  0
 37 38  1  0
 38 39  2  0
 39 40  1  0
 40 41  2  0
 41 42  1  0
 41 43  1  0
 43 44  2  0
 44 45  1  0
 36 46  1  0
 46 47  2  0
 46 48  1  0
 48 49  1  0
 48 50  1  0
 50 51  2  0
 29 25  1  0
 51 31  1  0
 50 34  1  0
 44 38  1  0
M  END

