
     RDKit          3D

 50 52  0  0  0  0  0  0  0  0999 V2000
   -5.2215    3.5285   -0.6991 C   0  0  0  0  0  0  0  0  0  0  0  0
   -4.1060    2.8239   -0.0216 C   0  0  0  0  0  0  0  0  0  0  0  0
   -3.3574    3.5005    0.7537 O   0  0  0  0  0  0  0  0  0  0  0  0
   -3.8401    1.4401   -0.1990 N   0  0  0  0  0  0  0  0  0  0  0  0
   -2.6075    0.9182    0.6210 C   0  0  1  0  0  0  0  0  0  0  0  0
   -2.9962   -0.6709    0.3621 C   0  0  0  0  0  0  0  0  0  0  0  0
   -1.8755   -1.3222    1.0984 C   0  0  0  0  0  0  0  0  0  0  0  0
   -1.7824   -1.0040    2.5381 C   0  0  0  0  0  0  0  0  0  0  0  0
   -1.5183   -2.6898    0.6870 C   0  0  0  0  0  0  0  0  0  0  0  0
   -1.5524    1.0385   -0.5320 C   0  0  0  0  0  0  0  0  0  0  0  0
   -1.7743    1.4267   -1.6563 O   0  0  0  0  0  0  0  0  0  0  0  0
   -0.2683    0.6471   -0.1534 N   0  0  0  0  0  0  0  0  0  0  0  0
    0.8998    0.6617   -1.0325 C   0  0  0  0  0  0  0  0  0  0  0  0
    2.1361    0.1842   -0.3341 C   0  0  0  0  0  0  0  0  0  0  0  0
    1.9741   -1.2355    0.1678 C   0  0  0  0  0  0  0  0  0  0  0  0
    3.2594   -1.6480    0.8500 C   0  0  0  0  0  0  0  0  0  0  0  0
    4.3371   -1.5845   -0.1133 N   0  0  0  0  0  0  0  0  0  0  0  0
    5.6843   -1.9174    0.2641 C   0  0  0  0  0  0  0  0  0  0  0  0
    6.6489   -1.8211   -0.7840 N   0  0  0  0  0  0  0  0  0  0  0  0
    5.9599   -2.2759    1.4577 N   0  0  0  0  0  4  0  0  0  0  0  0
    3.7039   -1.6685   -0.9916 C   0  0  0  0  0  0  0  0  0  0  0  0
    4.3147   -0.1633   -0.6526 C   0  0  2  0  0  0  0  0  0  0  0  0
    5.8383   -0.7582   -0.3629 C   0  0  0  0  0  0  0  0  0  0  0  0
    6.5930    0.4397   -0.0286 N   0  0  0  0  0  0  0  0  0  0  0  0
    6.7869    0.9965    1.1445 N   0  0  0  0  0  0  0  0  0  0  0  0
    7.5481    2.0931    0.9935 C   0  0  0  0  0  0  0  0  0  0  0  0
    7.8149    2.1888   -0.3203 N   0  0  0  0  0  0  0  0  0  0  0  0
    7.2234    1.1677   -0.9410 N   0  0  0  0  0  0  0  0  0  0  0  0
    3.8999   -0.2492    0.8760 N   0  0  0  0  0  0  0  0  0  0  0  0
    2.4931   -0.4068    1.0241 C   0  0  0  0  0  0  0  0  0  0  0  0
    2.0363   -0.4905    2.2961 N   0  0  0  0  0  0  0  0  0  0  0  0
    0.7159   -0.6402    2.5033 C   0  0  0  0  0  0  0  0  0  0  0  0
   -0.1931   -0.7119    1.4655 C   0  0  0  0  0  0  0  0  0  0  0  0
   -1.5494   -0.8648    1.6457 C   0  0  0  0  0  0  0  0  0  0  0  0
   -2.4094   -0.9294    0.5403 C   0  0  0  0  0  0  0  0  0  0  0  0
   -3.7610   -1.0805    0.6709 O   0  0  0  0  0  0  0  0  0  0  0  0
   -4.6946   -0.1639    0.1972 C   0  0  0  0  0  0  0  0  0  0  0  0
   -4.3222    0.9956   -0.4560 C   0  0  0  0  0  0  0  0  0  0  0  0
   -5.2937    1.8697   -0.9049 C   0  0  0  0  0  0  0  0  0  0  0  0
   -6.6358    1.5849   -0.7009 C   0  0  0  0  0  0  0  0  0  0  0  0
   -7.5515    2.4641   -1.1544 F   0  0  0  0  0  0  0  0  0  0  0  0
   -7.0063    0.4329   -0.0518 C   0  0  0  0  0  0  0  0  0  0  0  0
   -6.0220   -0.4274    0.3890 C   0  0  0  0  0  0  0  0  0  0  0  0
   -6.3840   -1.5654    1.0301 F   0  0  0  0  0  0  0  0  0  0  0  0
   -1.8656   -0.8365   -0.7213 C   0  0  0  0  0  0  0  0  0  0  0  0
   -2.6549   -0.8967   -1.6972 O   0  0  0  0  0  0  0  0  0  0  0  0
   -0.5245   -0.6855   -0.8886 N   0  0  0  0  0  0  0  0  0  0  0  0
   -0.0115   -0.5934   -2.2449 C   0  0  0  0  0  0  0  0  0  0  0  0
    0.2932   -0.6246    0.1786 C   0  0  0  0  0  0  0  0  0  0  0  0
    1.6178   -0.4762    0.0383 N   0  0  0  0  0  0  0  0  0  0  0  0
  1  2  1  0
  2  3  2  0
  2  4  1  0
  4  5  1  0
  5  6  1  6
  6  7  1  0
  7  8  1  0
  7  9  1  0
  5 10  1  0
 10 11  2  0
 10 12  1  0
 12 13  1  0
 13 14  1  0
 14 15  1  0
 15 16  1  0
 16 17  1  0
 17 18  1  0
 18 19  1  0
 18 20  2  0
 22 21  1  6
 22 23  1  0
 23 24  1  0
 24 25  1  0
 25 26  2  0
 26 27  1  0
 27 28  2  0
 22 29  1  0
 29 30  1  0
 30 31  2  0
 31 32  1  0
 32 33  2  0
 33 34  1  0
 34 35  2  0
 35 36  1  0
 36 37  1  0
 37 38  2  0
 38 39  1  0
 39 40  2  0
 40 41  1  0
 40 42  1  0
 42 43  2  0
 43 44  1  0
 35 45  1  0
 45 46  2  0
 45 47  1  0
 47 48  1  0
 47 49  1  0
 49 50  2  0
 28 24  1  0
 50 30  1  0
 49 33  1  0
 43 37  1  0
M  CHG  1  20   1
M  END

