
     RDKit          3D

 52 55  0  0  0  0  0  0  0  0999 V2000
    5.2589    0.3165   -0.3505 C   0  0  0  0  0  0  0  0  0  0  0  0
    5.7723   -0.4764    0.9752 C   0  0  1  0  0  0  0  0  0  0  0  0
    5.6425    0.7122    1.8915 O   0  0  0  0  0  0  0  0  0  0  0  0
    4.3385   -1.1511    1.3574 C   0  0  0  0  0  0  0  0  0  0  0  0
    3.4255   -0.2120    1.0496 N   0  0  0  0  0  0  0  0  0  0  0  0
    2.1257    0.0410    1.0479 C   0  0  0  0  0  0  0  0  0  0  0  0
    1.4567   -0.8653    1.4643 O   0  0  0  0  0  0  0  0  0  0  0  0
    1.7094    1.4261    0.5223 C   0  0  2  0  0  0  0  0  0  0  0  0
    1.5493    2.0849    2.0392 C   0  0  0  0  0  0  0  0  0  0  0  0
    0.5160    3.1194    1.6974 C   0  0  0  0  0  0  0  0  0  0  0  0
   -0.1623    2.6800    0.4353 C   0  0  0  0  0  0  0  0  0  0  0  0
    0.2473    1.3009    0.2994 N   0  0  0  0  0  0  0  0  0  0  0  0
   -0.6550    0.2910    0.0049 C   0  0  0  0  0  0  0  0  0  0  0  0
   -0.3326   -0.9280   -0.1653 O   0  0  0  0  0  0  0  0  0  0  0  0
   -2.0993    0.6430   -0.1231 C   0  0  0  0  0  0  0  0  0  0  0  0
   -2.8636   -0.6083   -0.4415 C   0  0  0  0  0  0  0  0  0  0  0  0
   -2.4145   -1.2585   -1.7325 C   0  0  0  0  0  0  0  0  0  0  0  0
   -3.2857   -2.5065   -1.9050 C   0  0  0  0  0  0  0  0  0  0  0  0
   -4.6711   -2.0328   -1.9658 N   0  0  0  0  0  0  0  0  0  0  0  0
   -5.0372   -1.1310   -3.0027 C   0  0  0  0  0  0  0  0  0  0  0  0
   -6.3832   -0.6738   -3.0578 N   0  0  0  0  0  0  0  0  0  0  0  0
   -4.1374   -0.7712   -3.8409 N   0  0  0  0  0  4  0  0  0  0  0  0
    2.7908   -1.0810    2.0259 C   0  0  0  0  0  0  0  0  0  0  0  0
    3.9669   -1.1034    0.8552 C   0  0  2  0  0  0  0  0  0  0  0  0
    5.1753   -0.7691    1.9728 C   0  0  0  0  0  0  0  0  0  0  0  0
    6.3551   -0.7439    1.1080 N   0  0  0  0  0  0  0  0  0  0  0  0
    7.1172   -1.7655    0.8107 N   0  0  0  0  0  0  0  0  0  0  0  0
    8.1065   -1.3674   -0.0093 C   0  0  0  0  0  0  0  0  0  0  0  0
    7.9392   -0.0502   -0.2191 N   0  0  0  0  0  0  0  0  0  0  0  0
    6.8629    0.2951    0.4771 N   0  0  0  0  0  0  0  0  0  0  0  0
    3.7683    0.4339    0.5182 N   0  0  0  0  0  0  0  0  0  0  0  0
    2.4335    0.7301    0.0748 C   0  0  0  0  0  0  0  0  0  0  0  0
    2.1662    1.9876   -0.2315 N   0  0  0  0  0  0  0  0  0  0  0  0
    0.9586    2.4004   -0.6589 C   0  0  0  0  0  0  0  0  0  0  0  0
   -0.0553    1.4766   -0.7873 C   0  0  0  0  0  0  0  0  0  0  0  0
   -1.3216    1.8088   -1.2173 C   0  0  0  0  0  0  0  0  0  0  0  0
   -2.2723    0.8176   -1.3150 C   0  0  0  0  0  0  0  0  0  0  0  0
   -3.5694    1.0611   -1.7378 O   0  0  0  0  0  0  0  0  0  0  0  0
   -4.6594    0.7903   -0.9222 C   0  0  0  0  0  0  0  0  0  0  0  0
   -5.6352   -0.1075   -1.3192 C   0  0  0  0  0  0  0  0  0  0  0  0
   -6.7116   -0.3638   -0.4946 C   0  0  0  0  0  0  0  0  0  0  0  0
   -6.8449    0.2576    0.7307 C   0  0  0  0  0  0  0  0  0  0  0  0
   -7.9220   -0.0065    1.5427 F   0  0  0  0  0  0  0  0  0  0  0  0
   -5.8751    1.1565    1.1366 C   0  0  0  0  0  0  0  0  0  0  0  0
   -4.7937    1.4064    0.2951 C   0  0  0  0  0  0  0  0  0  0  0  0
   -3.8554    2.2829    0.6996 F   0  0  0  0  0  0  0  0  0  0  0  0
   -1.9440   -0.4758   -0.9844 C   0  0  0  0  0  0  0  0  0  0  0  0
   -2.7924   -1.4272   -1.0594 O   0  0  0  0  0  0  0  0  0  0  0  0
   -0.7229   -0.8076   -0.5676 N   0  0  0  0  0  0  0  0  0  0  0  0
   -0.3517   -2.1688   -0.2122 C   0  0  0  0  0  0  0  0  0  0  0  0
    0.2182    0.1658   -0.4695 C   0  0  0  0  0  0  0  0  0  0  0  0
    1.4680   -0.1789   -0.0421 N   0  0  0  0  0  0  0  0  0  0  0  0
  2  1  1  6
  2  3  1  0
  2  4  1  0
  4  5  1  0
  5  6  1  0
  6  7  2  0
  8  6  1  1
  8  9  1  0
  9 10  1  0
 10 11  1  0
 11 12  1  0
 12 13  1  0
 13 14  2  0
 13 15  1  0
 15 16  1  0
 16 17  1  0
 17 18  1  0
 18 19  1  0
 19 20  1  0
 20 21  1  0
 20 22  2  0
 24 23  1  1
 24 25  1  0
 25 26  1  0
 26 27  1  0
 27 28  2  0
 28 29  1  0
 29 30  2  0
 24 31  1  0
 31 32  1  0
 32 33  2  0
 33 34  1  0
 34 35  2  0
 35 36  1  0
 36 37  2  0
 37 38  1  0
 38 39  1  0
 39 40  2  0
 40 41  1  0
 41 42  2  0
 42 43  1  0
 42 44  1  0
 44 45  2  0
 45 46  1  0
 37 47  1  0
 47 48  2  0
 47 49  1  0
 49 50  1  0
 49 51  1  0
 51 52  2  0
 12  8  1  0
 30 26  1  0
 52 32  1  0
 51 35  1  0
 45 39  1  0
M  CHG  1  22   1
M  END

