
     RDKit          3D

 55 58  0  0  0  0  0  0  0  0999 V2000
   -4.3261   -4.6772    1.6251 C   0  0  0  0  0  0  0  0  0  0  0  0
   -4.5542   -3.2782    1.1552 C   0  0  0  0  0  0  0  0  0  0  0  0
   -4.6160   -3.3803   -0.4587 C   0  0  2  0  0  0  0  0  0  0  0  0
   -3.1464   -3.9729   -0.6347 C   0  0  0  0  0  0  0  0  0  0  0  0
   -4.3061   -1.8873   -0.8395 C   0  0  0  0  0  0  0  0  0  0  0  0
   -3.1842   -1.2983   -0.4873 N   0  0  0  0  0  0  0  0  0  0  0  0
   -1.8613   -1.3949   -0.6818 C   0  0  0  0  0  0  0  0  0  0  0  0
   -1.3726   -2.2346   -1.3782 O   0  0  0  0  0  0  0  0  0  0  0  0
   -1.0097   -0.2870    0.1013 C   0  0  2  0  0  0  0  0  0  0  0  0
   -1.2197    0.8169   -1.0753 C   0  0  0  0  0  0  0  0  0  0  0  0
   -0.5106    2.0306   -0.6435 C   0  0  0  0  0  0  0  0  0  0  0  0
   -1.0363    2.9964    0.1697 C   0  0  0  0  0  0  0  0  0  0  0  0
   -0.3400    4.1346    0.5285 C   0  0  0  0  0  0  0  0  0  0  0  0
    0.9284    4.3357    0.0693 C   0  0  0  0  0  0  0  0  0  0  0  0
    1.6559    5.4670    0.4106 O   0  0  0  0  0  0  0  0  0  0  0  0
    1.4830    3.3809   -0.7513 C   0  0  0  0  0  0  0  0  0  0  0  0
    0.7887    2.2415   -1.1114 C   0  0  0  0  0  0  0  0  0  0  0  0
    0.3857   -0.7586   -0.3879 N   0  0  0  0  0  0  0  0  0  0  0  0
    1.4568   -0.3158    0.4340 C   0  0  0  0  0  0  0  0  0  0  0  0
    1.2687    0.4083    1.4691 O   0  0  0  0  0  0  0  0  0  0  0  0
    2.8297   -0.6868    0.1034 C   0  0  0  0  0  0  0  0  0  0  0  0
    3.8549    0.0172    0.9567 C   0  0  0  0  0  0  0  0  0  0  0  0
    5.1961   -0.4487    0.5706 C   0  0  0  0  0  0  0  0  0  0  0  0
    6.3301    0.3187    0.9364 N   0  0  0  0  0  0  0  0  0  0  0  0
    5.3053   -1.5275   -0.0803 O   0  0  0  0  0  0  0  0  0  0  0  0
   -4.0625    0.0258    3.2998 C   0  0  0  0  0  0  0  0  0  0  0  0
   -4.8621    0.8705    2.1193 C   0  0  2  0  0  0  0  0  0  0  0  0
   -4.8204   -0.3878    1.0524 C   0  0  0  0  0  0  0  0  0  0  0  0
   -5.4773    0.0796   -0.1279 N   0  0  0  0  0  0  0  0  0  0  0  0
   -4.8462    0.6885   -1.1336 N   0  0  0  0  0  0  0  0  0  0  0  0
   -5.7290    1.0092   -2.0977 C   0  0  0  0  0  0  0  0  0  0  0  0
   -6.9207    0.5882   -1.6724 N   0  0  0  0  0  0  0  0  0  0  0  0
   -6.7333    0.0320   -0.4807 N   0  0  0  0  0  0  0  0  0  0  0  0
   -3.5924    1.5766    1.5335 N   0  0  0  0  0  0  0  0  0  0  0  0
   -2.5061    0.8556    1.0860 C   0  0  0  0  0  0  0  0  0  0  0  0
   -2.5520   -0.4885    1.1649 N   0  0  0  0  0  0  0  0  0  0  0  0
   -1.5392   -1.2805    0.7528 C   0  0  0  0  0  0  0  0  0  0  0  0
   -0.4156   -0.6426    0.2295 C   0  0  0  0  0  0  0  0  0  0  0  0
    0.6825   -1.3484   -0.2239 C   0  0  0  0  0  0  0  0  0  0  0  0
    1.7865   -0.6587   -0.7408 C   0  0  0  0  0  0  0  0  0  0  0  0
    2.9065   -1.3183   -1.2059 O   0  0  0  0  0  0  0  0  0  0  0  0
    4.1718   -1.1425   -0.6860 C   0  0  0  0  0  0  0  0  0  0  0  0
    5.1627   -0.6833   -1.5215 C   0  0  0  0  0  0  0  0  0  0  0  0
    6.4526   -0.4810   -1.0806 C   0  0  0  0  0  0  0  0  0  0  0  0
    6.7759   -0.7431    0.2386 C   0  0  0  0  0  0  0  0  0  0  0  0
    8.0525   -0.5273    0.6144 F   0  0  0  0  0  0  0  0  0  0  0  0
    5.7917   -1.2005    1.0734 C   0  0  0  0  0  0  0  0  0  0  0  0
    4.4985   -1.4039    0.6336 C   0  0  0  0  0  0  0  0  0  0  0  0
    3.5103   -1.8615    1.4656 F   0  0  0  0  0  0  0  0  0  0  0  0
    1.7893    0.7198   -0.8022 C   0  0  0  0  0  0  0  0  0  0  0  0
    2.7916    1.3226   -1.2704 O   0  0  0  0  0  0  0  0  0  0  0  0
    0.7080    1.3903   -0.3546 N   0  0  0  0  0  0  0  0  0  0  0  0
    0.7581    2.8387   -0.4398 C   0  0  0  0  0  0  0  0  0  0  0  0
   -0.3615    0.7337    0.1456 C   0  0  0  0  0  0  0  0  0  0  0  0
   -1.4203    1.4369    0.5819 N   0  0  0  0  0  0  0  0  0  0  0  0
  1  2  1  0
  2  3  1  0
  3  4  1  6
  3  5  1  0
  5  6  1  0
  6  7  1  0
  7  8  2  0
  7  9  1  0
  9 10  1  6
 10 11  1  0
 11 12  2  0
 12 13  1  0
 13 14  2  0
 14 15  1  0
 14 16  1  0
 16 17  2  0
  9 18  1  0
 18 19  1  0
 19 20  2  0
 19 21  1  0
 21 22  1  0
 22 23  1  0
 23 24  1  0
 23 25  2  0
 27 26  1  1
 27 28  1  0
 28 29  1  0
 29 30  1  0
 30 31  2  0
 31 32  1  0
 32 33  2  0
 27 34  1  0
 34 35  1  0
 35 36  2  0
 36 37  1  0
 37 38  2  0
 38 39  1  0
 39 40  2  0
 40 41  1  0
 41 42  1  0
 42 43  2  0
 43 44  1  0
 44 45  2  0
 45 46  1  0
 45 47  1  0
 47 48  2  0
 48 49  1  0
 40 50  1  0
 50 51  2  0
 50 52  1  0
 52 53  1  0
 52 54  1  0
 54 55  2  0
 17 11  1  0
 33 29  1  0
 55 35  1  0
 54 38  1  0
 48 42  1  0
M  END

