
     RDKit          3D

 57 61  0  0  0  0  0  0  0  0999 V2000
    4.1383    0.0049   -2.4332 C   0  0  0  0  0  0  0  0  0  0  0  0
    5.4786    0.0356   -1.8326 C   0  0  0  0  0  0  0  0  0  0  0  0
    6.5736   -0.6046   -2.6122 C   0  0  0  0  0  0  0  0  0  0  0  0
    5.5882   -0.2845   -0.4055 C   0  0  0  0  0  0  0  0  0  0  0  0
    4.8617    0.5817    0.5146 C   0  0  0  0  0  0  0  0  0  0  0  0
    3.4035    0.5667    0.4023 C   0  0  0  0  0  0  0  0  0  0  0  0
    2.7185   -0.2145   -0.2893 O   0  0  0  0  0  0  0  0  0  0  0  0
    2.7302    1.5409    1.1622 N   0  0  0  0  0  0  0  0  0  0  0  0
    1.1677    1.6246    1.1376 C   0  0  1  0  0  0  0  0  0  0  0  0
    1.0086    1.2022   -0.4487 C   0  0  0  0  0  0  0  0  0  0  0  0
    1.7587    2.2626   -1.1485 C   0  0  0  0  0  0  0  0  0  0  0  0
    2.4534    3.3131   -0.5336 N   0  0  0  0  0  0  0  0  0  0  0  0
    1.7753    2.2192   -2.4001 O   0  0  0  0  0  0  0  0  0  0  0  0
    0.8011    0.1853    1.7215 C   0  0  0  0  0  0  0  0  0  0  0  0
    1.6433   -0.6200    2.0463 O   0  0  0  0  0  0  0  0  0  0  0  0
   -0.5606   -0.1437    1.8579 N   0  0  0  0  0  0  0  0  0  0  0  0
   -1.0376   -1.4142    2.3738 C   0  0  0  0  0  0  0  0  0  0  0  0
   -2.5462   -1.3704    2.3693 C   0  0  0  0  0  0  0  0  0  0  0  0
   -3.0220   -1.1649    0.9801 C   0  0  0  0  0  0  0  0  0  0  0  0
   -2.3115   -1.0100   -0.1924 C   0  0  0  0  0  0  0  0  0  0  0  0
   -3.1614   -0.8491   -1.2208 N   0  0  0  0  0  0  0  0  0  0  0  0
   -4.4090   -0.8919   -0.7707 C   0  0  0  0  0  0  0  0  0  0  0  0
   -5.6237   -0.7812   -1.4038 C   0  0  0  0  0  0  0  0  0  0  0  0
   -6.7887   -0.8667   -0.6668 C   0  0  0  0  0  0  0  0  0  0  0  0
   -6.7438   -1.0617    0.6960 C   0  0  0  0  0  0  0  0  0  0  0  0
   -5.5305   -1.1728    1.3330 C   0  0  0  0  0  0  0  0  0  0  0  0
   -4.3657   -1.0865    0.5907 C   0  0  0  0  0  0  0  0  0  0  0  0
    4.1531    0.1557   -0.5365 C   0  0  0  0  0  0  0  0  0  0  0  0
    4.6788    0.3449    1.0215 C   0  0  2  0  0  0  0  0  0  0  0  0
    6.0047   -0.6153    0.7828 C   0  0  0  0  0  0  0  0  0  0  0  0
    6.7067    0.0922   -0.2780 N   0  0  0  0  0  0  0  0  0  0  0  0
    6.5715   -0.0626   -1.5762 N   0  0  0  0  0  0  0  0  0  0  0  0
    7.4027    0.7831   -2.1869 C   0  0  0  0  0  0  0  0  0  0  0  0
    8.0378    1.4471   -1.2047 N   0  0  0  0  0  0  0  0  0  0  0  0
    7.6106    1.0232   -0.0175 N   0  0  0  0  0  0  0  0  0  0  0  0
    3.8479   -0.8368    1.6466 N   0  0  0  0  0  0  0  0  0  0  0  0
    2.4607   -0.8096    1.5572 C   0  0  0  0  0  0  0  0  0  0  0  0
    1.7991   -1.8410    2.1061 N   0  0  0  0  0  0  0  0  0  0  0  0
    0.4601   -1.9392    2.0903 C   0  0  0  0  0  0  0  0  0  0  0  0
   -0.2860   -0.9426    1.4861 C   0  0  0  0  0  0  0  0  0  0  0  0
   -1.6462   -0.9666    1.4267 C   0  0  0  0  0  0  0  0  0  0  0  0
   -2.4221    0.0663    0.8001 C   0  0  0  0  0  0  0  0  0  0  0  0
   -3.7354   -0.0455    0.7949 O   0  0  0  0  0  0  0  0  0  0  0  0
   -4.8376   -0.1775    0.0864 C   0  0  0  0  0  0  0  0  0  0  0  0
   -5.5341   -1.4003    0.3446 C   0  0  0  0  0  0  0  0  0  0  0  0
   -6.6933   -1.6973   -0.3031 C   0  0  0  0  0  0  0  0  0  0  0  0
   -7.2769   -0.8691   -1.2349 C   0  0  0  0  0  0  0  0  0  0  0  0
   -8.4312   -1.2082   -1.8563 F   0  0  0  0  0  0  0  0  0  0  0  0
   -6.6227    0.3084   -1.4943 C   0  0  0  0  0  0  0  0  0  0  0  0
   -5.4363    0.6232   -0.8378 C   0  0  0  0  0  0  0  0  0  0  0  0
   -4.9140    1.8018   -1.1643 F   0  0  0  0  0  0  0  0  0  0  0  0
   -1.7149    1.0990    0.2541 C   0  0  0  0  0  0  0  0  0  0  0  0
   -2.2651    2.0980   -0.3372 O   0  0  0  0  0  0  0  0  0  0  0  0
   -0.3625    1.0860    0.3335 N   0  0  0  0  0  0  0  0  0  0  0  0
    0.3606    2.2121   -0.2654 C   0  0  0  0  0  0  0  0  0  0  0  0
    0.3706    0.1301    0.9135 C   0  0  0  0  0  0  0  0  0  0  0  0
    1.7132    0.1406    0.9792 N   0  0  0  0  0  0  0  0  0  0  0  0
  1  2  1  0
  2  3  1  0
  2  4  1  0
  4  5  1  0
  5  6  1  0
  6  7  2  0
  6  8  1  0
  8  9  1  0
  9 10  1  6
 10 11  1  0
 11 12  1  0
 11 13  2  0
  9 14  1  0
 14 15  2  0
 14 16  1  0
 16 17  1  0
 17 18  1  0
 18 19  1  0
 19 20  2  0
 20 21  1  0
 21 22  1  0
 22 23  2  0
 23 24  1  0
 24 25  2  0
 25 26  1  0
 26 27  2  0
 29 28  1  6
 29 30  1  0
 30 31  1  0
 31 32  1  0
 32 33  2  0
 33 34  1  0
 34 35  2  0
 29 36  1  0
 36 37  1  0
 37 38  2  0
 38 39  1  0
 39 40  2  0
 40 41  1  0
 41 42  2  0
 42 43  1  0
 43 44  1  0
 44 45  2  0
 45 46  1  0
 46 47  2  0
 47 48  1  0
 47 49  1  0
 49 50  2  0
 50 51  1  0
 42 52  1  0
 52 53  2  0
 52 54  1  0
 54 55  1  0
 54 56  1  0
 56 57  2  0
 27 19  1  0
 35 31  1  0
 57 37  1  0
 27 22  1  0
 56 40  1  0
 50 44  1  0
M  END

