
     RDKit          3D

 52 54  0  0  0  0  0  0  0  0999 V2000
    3.7813   -0.8619   -1.2843 C   0  0  0  0  0  0  0  0  0  0  0  0
    4.9895   -1.3806   -0.7730 C   0  0  0  0  0  0  0  0  0  0  0  0
    4.9894   -1.8201    0.7677 C   0  0  2  0  0  0  0  0  0  0  0  0
    3.8209   -2.9351    0.6510 C   0  0  0  0  0  0  0  0  0  0  0  0
    4.0521   -0.6494    1.3529 C   0  0  0  0  0  0  0  0  0  0  0  0
    2.7982   -0.6649    0.7779 N   0  0  0  0  0  0  0  0  0  0  0  0
    1.6415    0.0426    0.8799 C   0  0  0  0  0  0  0  0  0  0  0  0
    1.7337    0.9546    1.7187 O   0  0  0  0  0  0  0  0  0  0  0  0
    0.3438   -0.2181    0.0752 C   0  0  2  0  0  0  0  0  0  0  0  0
    0.7103    0.4980   -1.3041 C   0  0  0  0  0  0  0  0  0  0  0  0
    0.9972    1.9181   -1.1842 C   0  0  0  0  0  0  0  0  0  0  0  0
    1.2955    2.3971   -2.6318 C   0  0  0  0  0  0  0  0  0  0  0  0
    2.3513    2.2686   -0.5198 C   0  0  0  0  0  0  0  0  0  0  0  0
   -0.5196    0.9427    0.6345 N   0  0  0  0  0  0  0  0  0  0  0  0
   -1.8971    0.5964    0.6645 C   0  0  0  0  0  0  0  0  0  0  0  0
   -2.2998   -0.5291    0.2716 O   0  0  0  0  0  0  0  0  0  0  0  0
   -2.9512    1.5335    1.1586 C   0  0  0  0  0  0  0  0  0  0  0  0
   -4.3276    0.9140    1.0777 C   0  0  0  0  0  0  0  0  0  0  0  0
   -4.5983    0.5741   -0.3866 C   0  0  0  0  0  0  0  0  0  0  0  0
   -5.9425   -0.0503   -0.5950 C   0  0  0  0  0  0  0  0  0  0  0  0
   -6.0218   -1.3314    0.2070 C   0  0  0  0  0  0  0  0  0  0  0  0
   -4.9468   -2.1987   -0.2976 N   0  0  0  0  0  4  0  0  0  0  0  0
    6.1427   -0.5734   -1.8492 C   0  0  0  0  0  0  0  0  0  0  0  0
    4.6653    0.1484   -2.0796 C   0  0  2  0  0  0  0  0  0  0  0  0
    4.8501    1.3653   -0.9809 C   0  0  0  0  0  0  0  0  0  0  0  0
    5.0590    0.8398    0.2993 N   0  0  0  0  0  0  0  0  0  0  0  0
    6.2131    0.5424    0.8450 N   0  0  0  0  0  0  0  0  0  0  0  0
    5.9943    0.0694    2.0678 C   0  0  0  0  0  0  0  0  0  0  0  0
    4.6723    0.0875    2.2509 N   0  0  0  0  0  0  0  0  0  0  0  0
    4.1342    0.5556    1.1712 N   0  0  0  0  0  0  0  0  0  0  0  0
    3.9287   -0.8166   -1.0732 N   0  0  0  0  0  0  0  0  0  0  0  0
    2.5550   -0.6037   -0.8997 C   0  0  0  0  0  0  0  0  0  0  0  0
    1.9453    0.3779   -1.5734 N   0  0  0  0  0  0  0  0  0  0  0  0
    0.6139    0.5956   -1.4149 C   0  0  0  0  0  0  0  0  0  0  0  0
   -0.1414   -0.1906   -0.5549 C   0  0  0  0  0  0  0  0  0  0  0  0
   -1.4810    0.0048   -0.3754 C   0  0  0  0  0  0  0  0  0  0  0  0
   -2.1865   -0.8021    0.4893 C   0  0  0  0  0  0  0  0  0  0  0  0
   -3.5307   -0.6598    0.7149 O   0  0  0  0  0  0  0  0  0  0  0  0
   -4.2395    0.3367    0.0541 C   0  0  0  0  0  0  0  0  0  0  0  0
   -3.6268    1.1976   -0.8322 C   0  0  0  0  0  0  0  0  0  0  0  0
   -4.3626    2.1779   -1.4723 C   0  0  0  0  0  0  0  0  0  0  0  0
   -5.7167    2.3494   -1.2688 C   0  0  0  0  0  0  0  0  0  0  0  0
   -6.4141    3.3201   -1.9107 F   0  0  0  0  0  0  0  0  0  0  0  0
   -6.3254    1.4851   -0.3806 C   0  0  0  0  0  0  0  0  0  0  0  0
   -5.5952    0.4967    0.2679 C   0  0  0  0  0  0  0  0  0  0  0  0
   -6.1750   -0.3646    1.1460 F   0  0  0  0  0  0  0  0  0  0  0  0
   -1.5117   -1.8016    1.1614 C   0  0  0  0  0  0  0  0  0  0  0  0
   -2.1269   -2.5671    1.9677 O   0  0  0  0  0  0  0  0  0  0  0  0
   -0.1878   -1.9794    0.9710 N   0  0  0  0  0  0  0  0  0  0  0  0
    0.5081   -3.0415    1.6907 C   0  0  0  0  0  0  0  0  0  0  0  0
    0.5099   -1.1970    0.1291 C   0  0  0  0  0  0  0  0  0  0  0  0
    1.8295   -1.3533   -0.0784 N   0  0  0  0  0  0  0  0  0  0  0  0
  1  2  1  0
  2  3  1  0
  3  4  1  6
  3  5  1  0
  5  6  1  0
  6  7  1  0
  7  8  2  0
  7  9  1  0
  9 10  1  6
 10 11  1  0
 11 12  1  0
 11 13  1  0
  9 14  1  0
 14 15  1  0
 15 16  2  0
 15 17  1  0
 17 18  1  0
 18 19  1  0
 19 20  1  0
 20 21  1  0
 21 22  1  0
 24 23  1  1
 24 25  1  0
 25 26  1  0
 26 27  1  0
 27 28  2  0
 28 29  1  0
 29 30  2  0
 24 31  1  0
 31 32  1  0
 32 33  2  0
 33 34  1  0
 34 35  2  0
 35 36  1  0
 36 37  2  0
 37 38  1  0
 38 39  1  0
 39 40  2  0
 40 41  1  0
 41 42  2  0
 42 43  1  0
 42 44  1  0
 44 45  2  0
 45 46  1  0
 37 47  1  0
 47 48  2  0
 47 49  1  0
 49 50  1  0
 49 51  1  0
 51 52  2  0
 30 26  1  0
 52 32  1  0
 51 35  1  0
 45 39  1  0
M  CHG  1  22   1
M  END

