
     RDKit          3D

 51 54  0  0  0  0  0  0  0  0999 V2000
    5.5790    1.3988    1.4986 C   0  0  0  0  0  0  0  0  0  0  0  0
    4.2827    0.3920    1.1403 C   0  0  2  0  0  0  0  0  0  0  0  0
    4.6005    0.4671   -0.4884 C   0  0  0  0  0  0  0  0  0  0  0  0
    5.9331   -0.0723   -0.5262 N   0  0  0  0  0  0  0  0  0  0  0  0
    6.2248   -1.3536   -0.6716 N   0  0  0  0  0  0  0  0  0  0  0  0
    7.5736   -1.4423   -0.6558 C   0  0  0  0  0  0  0  0  0  0  0  0
    8.0843   -0.2129   -0.5010 N   0  0  0  0  0  0  0  0  0  0  0  0
    7.0399    0.6271   -0.4222 N   0  0  0  0  0  0  0  0  0  0  0  0
    3.2749    1.6142    1.0835 N   0  0  0  0  0  0  0  0  0  0  0  0
    1.9409    1.2776    0.7922 C   0  0  0  0  0  0  0  0  0  0  0  0
    1.0299    2.2605    0.7274 N   0  0  0  0  0  0  0  0  0  0  0  0
   -0.2723    1.9841    0.4489 C   0  0  0  0  0  0  0  0  0  0  0  0
   -0.6791    0.6875    0.2280 C   0  0  0  0  0  0  0  0  0  0  0  0
   -1.9647    0.3408   -0.0551 C   0  0  0  0  0  0  0  0  0  0  0  0
   -2.3011   -0.9740   -0.2645 C   0  0  0  0  0  0  0  0  0  0  0  0
   -3.5791   -1.4025   -0.5552 O   0  0  0  0  0  0  0  0  0  0  0  0
   -4.6519   -0.5219   -0.6621 C   0  0  0  0  0  0  0  0  0  0  0  0
   -5.3016   -0.4963   -1.8867 C   0  0  0  0  0  0  0  0  0  0  0  0
   -6.3749    0.3326   -2.1130 C   0  0  0  0  0  0  0  0  0  0  0  0
   -6.7814    1.1412   -1.0688 C   0  0  0  0  0  0  0  0  0  0  0  0
   -7.8411    1.9781   -1.2496 F   0  0  0  0  0  0  0  0  0  0  0  0
   -6.1438    1.1188    0.1394 C   0  0  0  0  0  0  0  0  0  0  0  0
   -5.0560    0.2772    0.3653 C   0  0  0  0  0  0  0  0  0  0  0  0
   -4.4207    0.2495    1.5566 F   0  0  0  0  0  0  0  0  0  0  0  0
   -1.3199   -1.9636   -0.1870 C   0  0  0  0  0  0  0  0  0  0  0  0
   -1.6044   -3.1811   -0.3758 O   0  0  0  0  0  0  0  0  0  0  0  0
   -0.0768   -1.5893    0.0910 N   0  0  0  0  0  0  0  0  0  0  0  0
    0.9443   -2.6180    0.1718 C   0  0  0  0  0  0  0  0  0  0  0  0
    0.2842   -0.3212    0.3000 C   0  0  0  0  0  0  0  0  0  0  0  0
    1.5768    0.0022    0.5819 N   0  0  0  0  0  0  0  0  0  0  0  0
    5.9851   -0.9597    0.5980 O   0  0  0  0  0  1  0  0  0  0  0  0
    5.1402   -0.0040    0.0561 C   0  0  0  0  0  0  0  0  0  0  0  0
    4.5414    0.7899    0.8629 O   0  0  0  0  0  0  0  0  0  0  0  0
    4.8973    0.1447   -1.3903 C   0  0  0  0  0  0  0  0  0  0  0  0
    3.5228   -0.3884   -1.7384 C   0  0  0  0  0  0  0  0  0  0  0  0
    2.5394    0.3624   -0.9887 N   0  0  0  0  0  0  0  0  0  0  0  0
    1.1564   -0.0051   -1.2047 C   0  0  0  0  0  0  0  0  0  0  0  0
    0.8631   -0.8797   -1.9622 O   0  0  0  0  0  0  0  0  0  0  0  0
    0.1224    0.8546   -0.3557 C   0  0  2  0  0  0  0  0  0  0  0  0
    0.2597    0.0443    1.0251 C   0  0  0  0  0  0  0  0  0  0  0  0
   -0.1315   -1.3290    0.9043 C   0  0  0  0  0  0  0  0  0  0  0  0
    0.0032   -2.1656    1.9970 O   0  0  0  0  0  1  0  0  0  0  0  0
   -0.5909   -1.8248   -0.1379 O   0  0  0  0  0  0  0  0  0  0  0  0
   -1.2062    0.1716   -0.8175 N   0  0  0  0  0  0  0  0  0  0  0  0
   -2.3000    0.4101    0.0537 C   0  0  0  0  0  0  0  0  0  0  0  0
   -2.2528    1.0730    1.0830 O   0  0  0  0  0  0  0  0  0  0  0  0
   -3.6588   -0.2803   -0.4258 C   0  0  2  0  0  0  0  0  0  0  0  0
   -4.0404    0.9320   -1.4898 C   0  0  0  0  0  0  0  0  0  0  0  0
   -4.7118    1.9216   -0.6083 C   0  0  0  0  0  0  0  0  0  0  0  0
   -5.6053    0.8985    0.1230 C   0  0  0  0  0  0  0  0  0  0  0  0
   -4.5333    0.2338    0.7592 N   0  0  0  0  0  0  0  0  0  0  0  0
  2  1  1  1
  2  3  1  0
  3  4  1  0
  4  5  1  0
  5  6  2  0
  6  7  1  0
  7  8  2  0
  2  9  1  0
  9 10  1  0
 10 11  2  0
 11 12  1  0
 12 13  2  0
 13 14  1  0
 14 15  2  0
 15 16  1  0
 16 17  1  0
 17 18  2  0
 18 19  1  0
 19 20  2  0
 20 21  1  0
 20 22  1  0
 22 23  2  0
 23 24  1  0
 15 25  1  0
 25 26  2  0
 25 27  1  0
 27 28  1  0
 27 29  1  0
 29 30  2  0
 31 32  1  0
 32 33  2  0
 32 34  1  0
 34 35  1  0
 35 36  1  0
 36 37  1  0
 37 38  2  0
 37 39  1  0
 39 40  1  1
 40 41  1  0
 41 42  1  0
 41 43  2  0
 39 44  1  0
 44 45  1  0
 45 46  2  0
 47 45  1  1
 47 48  1  0
 48 49  1  0
 49 50  1  0
 50 51  1  0
  8  4  1  0
 30 10  1  0
 51 47  1  0
 29 13  1  0
 23 17  1  0
M  RAD  2  31   2  42   2
M  END

