
     RDKit          3D

 50 52  0  0  0  0  0  0  0  0999 V2000
    3.5195   -2.0347   -0.3741 C   0  0  0  0  0  0  0  0  0  0  0  0
    4.2024   -0.6829   -1.0534 C   0  0  2  0  0  0  0  0  0  0  0  0
    5.6644   -0.9685   -0.3039 C   0  0  0  0  0  0  0  0  0  0  0  0
    6.5074    0.1184   -0.7393 N   0  0  0  0  0  0  0  0  0  0  0  0
    6.5853    1.2571   -0.0707 N   0  0  0  0  0  0  0  0  0  0  0  0
    7.4361    2.0722   -0.7025 C   0  0  0  0  0  0  0  0  0  0  0  0
    7.8663    1.3848   -1.7727 N   0  0  0  0  0  0  0  0  0  0  0  0
    7.3000    0.1923   -1.7958 N   0  0  0  0  0  0  0  0  0  0  0  0
    3.6680    0.2726    0.0753 N   0  0  0  0  0  0  0  0  0  0  0  0
    2.2476    0.2560    0.1434 C   0  0  0  0  0  0  0  0  0  0  0  0
    1.5931    1.0178    1.0574 N   0  0  0  0  0  0  0  0  0  0  0  0
    0.2597    1.0000    1.1185 C   0  0  0  0  0  0  0  0  0  0  0  0
   -0.4730    0.2238    0.2731 C   0  0  0  0  0  0  0  0  0  0  0  0
   -1.8398    0.1460    0.2676 C   0  0  0  0  0  0  0  0  0  0  0  0
   -2.4690   -0.6737   -0.6342 C   0  0  0  0  0  0  0  0  0  0  0  0
   -3.8609   -0.7711   -0.6607 O   0  0  0  0  0  0  0  0  0  0  0  0
   -4.6128   -0.0318    0.2334 C   0  0  0  0  0  0  0  0  0  0  0  0
   -4.0344    0.8043    1.1571 C   0  0  0  0  0  0  0  0  0  0  0  0
   -4.7821    1.5296    2.0348 C   0  0  0  0  0  0  0  0  0  0  0  0
   -6.1467    1.4151    1.9870 C   0  0  0  0  0  0  0  0  0  0  0  0
   -6.9452    2.1076    2.8303 F   0  0  0  0  0  0  0  0  0  0  0  0
   -6.7344    0.5904    1.0770 C   0  0  0  0  0  0  0  0  0  0  0  0
   -5.9903   -0.1579    0.1731 C   0  0  0  0  0  0  0  0  0  0  0  0
   -6.6072   -0.9694   -0.7200 F   0  0  0  0  0  0  0  0  0  0  0  0
   -1.7429   -1.4123   -1.5260 C   0  0  0  0  0  0  0  0  0  0  0  0
   -2.2915   -2.1810   -2.3741 O   0  0  0  0  0  0  0  0  0  0  0  0
   -0.4218   -1.3468   -1.5317 N   0  0  0  0  0  0  0  0  0  0  0  0
    0.3733   -2.1200   -2.4674 C   0  0  0  0  0  0  0  0  0  0  0  0
    0.1986   -0.5361   -0.6397 C   0  0  0  0  0  0  0  0  0  0  0  0
    1.5303   -0.5019   -0.6821 N   0  0  0  0  0  0  0  0  0  0  0  0
   -5.2437    1.3838   -0.2725 N   0  0  0  0  0  4  0  0  0  0  0  0
   -5.1402    0.5953    0.9408 C   0  0  0  0  0  0  0  0  0  0  0  0
   -5.3101   -0.8818    0.6645 C   0  0  0  0  0  0  0  0  0  0  0  0
   -4.2872   -1.4217   -0.2762 C   0  0  0  0  0  0  0  0  0  0  0  0
   -2.8648   -1.2818    0.1980 C   0  0  0  0  0  0  0  0  0  0  0  0
   -2.5922    0.1956    0.3893 C   0  0  0  0  0  0  0  0  0  0  0  0
   -1.2299    0.4266    0.8486 N   0  0  0  0  0  0  0  0  0  0  0  0
   -0.1695   -0.0062    0.0324 C   0  0  0  0  0  0  0  0  0  0  0  0
   -0.3776   -0.5626   -1.0372 O   0  0  0  0  0  0  0  0  0  0  0  0
    1.3067    0.2475    0.5442 C   0  0  2  0  0  0  0  0  0  0  0  0
    1.4744    1.7337   -0.1715 C   0  0  0  0  0  0  0  0  0  0  0  0
    0.4284    2.5884    0.3930 C   0  0  0  0  0  0  0  0  0  0  0  0
    0.6571    3.2271    1.6011 O   0  0  0  0  0  1  0  0  0  0  0  0
   -0.6627    2.7563   -0.1856 O   0  0  0  0  0  0  0  0  0  0  0  0
    2.0409   -0.4825   -0.6561 N   0  0  0  0  0  0  0  0  0  0  0  0
    3.1971   -1.1843   -0.2551 C   0  0  0  0  0  0  0  0  0  0  0  0
    3.5227   -1.1685    0.9535 O   0  0  0  0  0  0  0  0  0  0  0  0
    4.0496   -1.9502   -1.2344 C   0  0  0  0  0  0  0  0  0  0  0  0
    5.2116   -2.5889   -0.5050 C   0  0  0  0  0  0  0  0  0  0  0  0
    5.9893   -1.6257    0.1048 O   0  0  0  0  0  0  0  0  0  0  0  0
  2  1  1  1
  2  3  1  0
  3  4  1  0
  4  5  1  0
  5  6  2  0
  6  7  1  0
  7  8  2  0
  2  9  1  0
  9 10  1  0
 10 11  2  0
 11 12  1  0
 12 13  2  0
 13 14  1  0
 14 15  2  0
 15 16  1  0
 16 17  1  0
 17 18  2  0
 18 19  1  0
 19 20  2  0
 20 21  1  0
 20 22  1  0
 22 23  2  0
 23 24  1  0
 15 25  1  0
 25 26  2  0
 25 27  1  0
 27 28  1  0
 27 29  1  0
 29 30  2  0
 31 32  1  0
 32 33  1  0
 33 34  1  0
 34 35  1  0
 35 36  1  0
 36 37  1  0
 37 38  1  0
 38 39  2  0
 38 40  1  0
 40 41  1  6
 41 42  1  0
 42 43  1  0
 42 44  2  0
 40 45  1  0
 45 46  1  0
 46 47  2  0
 46 48  1  0
 48 49  1  0
 49 50  1  0
  8  4  1  0
 30 10  1  0
 29 13  1  0
 23 17  1  0
M  CHG  1  31   1
M  RAD  1  43   2
M  END

