
     RDKit          3D

 54 57  0  0  0  0  0  0  0  0999 V2000
    5.9173   -1.1319   -0.3586 C   0  0  0  0  0  0  0  0  0  0  0  0
    4.3619   -0.6125   -0.7246 C   0  0  2  0  0  0  0  0  0  0  0  0
    4.2566    0.3099    0.6698 C   0  0  0  0  0  0  0  0  0  0  0  0
    5.3291    1.2567    0.5600 N   0  0  0  0  0  0  0  0  0  0  0  0
    5.4132    2.4496    0.0471 N   0  0  0  0  0  0  0  0  0  0  0  0
    6.6741    2.9257    0.2050 C   0  0  0  0  0  0  0  0  0  0  0  0
    7.3718    1.9616    0.8458 N   0  0  0  0  0  0  0  0  0  0  0  0
    6.5385    0.9698    1.0466 N   0  0  0  0  0  0  0  0  0  0  0  0
    3.7151   -1.8702   -0.0136 N   0  0  0  0  0  0  0  0  0  0  0  0
    2.3148   -1.9038   -0.0495 C   0  0  0  0  0  0  0  0  0  0  0  0
    1.7158   -2.9497    0.5393 N   0  0  0  0  0  0  0  0  0  0  0  0
    0.3869   -3.0372    0.5377 C   0  0  0  0  0  0  0  0  0  0  0  0
   -0.3668   -2.0593   -0.0651 C   0  0  0  0  0  0  0  0  0  0  0  0
   -1.7595   -2.1287   -0.0798 C   0  0  0  0  0  0  0  0  0  0  0  0
   -2.4500   -1.1093   -0.7044 C   0  0  0  0  0  0  0  0  0  0  0  0
   -3.8409   -1.1106   -0.7589 O   0  0  0  0  0  0  0  0  0  0  0  0
   -4.6156   -0.0984   -0.2119 C   0  0  0  0  0  0  0  0  0  0  0  0
   -5.4608    0.6345   -1.0196 C   0  0  0  0  0  0  0  0  0  0  0  0
   -6.2523    1.6607   -0.4905 C   0  0  0  0  0  0  0  0  0  0  0  0
   -6.2021    1.9611    0.8576 C   0  0  0  0  0  0  0  0  0  0  0  0
   -6.9927    2.9708    1.3279 F   0  0  0  0  0  0  0  0  0  0  0  0
   -5.3615    1.2337    1.6664 C   0  0  0  0  0  0  0  0  0  0  0  0
   -4.5763    0.2130    1.1320 C   0  0  0  0  0  0  0  0  0  0  0  0
   -3.7475   -0.5036    1.9319 F   0  0  0  0  0  0  0  0  0  0  0  0
   -1.7404   -0.0742   -1.2825 C   0  0  0  0  0  0  0  0  0  0  0  0
   -2.3952    0.8404   -1.8442 O   0  0  0  0  0  0  0  0  0  0  0  0
   -0.4064    0.0002   -1.2730 N   0  0  0  0  0  0  0  0  0  0  0  0
    0.2750    1.1263   -1.9055 C   0  0  0  0  0  0  0  0  0  0  0  0
    0.2743   -0.9924   -0.6645 C   0  0  0  0  0  0  0  0  0  0  0  0
    1.6237   -0.9325   -0.6460 N   0  0  0  0  0  0  0  0  0  0  0  0
    0.5486    0.6806   -4.2043 N   0  0  0  0  0  0  0  0  0  0  0  0
    1.0140    0.6558   -2.7890 C   0  0  0  0  0  0  0  0  0  0  0  0
    1.3012    1.8005   -2.4450 O   0  0  0  0  0  0  0  0  0  0  0  0
    0.9911   -0.6293   -2.2486 C   0  0  0  0  0  0  0  0  0  0  0  0
    1.4958   -0.7984   -0.7275 C   0  0  2  0  0  0  0  0  0  0  0  0
    0.4580    0.1763   -0.0567 N   0  0  0  0  0  0  0  0  0  0  0  0
   -0.8682   -0.3924   -0.1919 C   0  0  0  0  0  0  0  0  0  0  0  0
   -1.0725   -1.4850   -0.7859 O   0  0  0  0  0  0  0  0  0  0  0  0
   -2.0512    0.3134    0.3889 C   0  0  0  0  0  0  0  0  0  0  0  0
   -3.2632   -0.5354    0.1039 C   0  0  0  0  0  0  0  0  0  0  0  0
   -4.5223    0.0385    0.6565 C   0  0  0  0  0  0  0  0  0  0  0  0
   -4.8677   -0.3662    1.9317 C   0  0  0  0  0  0  0  0  0  0  0  0
   -6.0019    0.0875    2.5786 C   0  0  0  0  0  0  0  0  0  0  0  0
   -6.7906    0.9813    1.8717 C   0  0  0  0  0  0  0  0  0  0  0  0
   -6.4662    1.4057    0.5834 C   0  0  0  0  0  0  0  0  0  0  0  0
   -5.3232    0.9160   -0.0010 C   0  0  0  0  0  0  0  0  0  0  0  0
    2.7670    0.1077   -0.6167 C   0  0  0  0  0  0  0  0  0  0  0  0
    2.8497    1.2851   -0.5002 O   0  0  0  0  0  0  0  0  0  0  0  0
    3.9622   -0.7066   -0.6608 N   0  0  0  0  0  0  0  0  0  0  0  0
    5.2833   -0.0884   -0.5618 C   0  0  0  0  0  0  0  0  0  0  0  0
    5.3659    0.6998    0.7550 C   0  0  0  0  0  0  0  0  0  0  0  0
    5.1316   -0.1513    1.9241 C   0  0  0  0  0  0  0  0  0  0  0  0
    5.2122    0.3445    3.2171 O   0  0  0  0  0  1  0  0  0  0  0  0
    4.8463   -1.3627    1.7784 O   0  0  0  0  0  0  0  0  0  0  0  0
  2  1  1  1
  2  3  1  0
  3  4  1  0
  4  5  1  0
  5  6  2  0
  6  7  1  0
  7  8  2  0
  2  9  1  0
  9 10  1  0
 10 11  2  0
 11 12  1  0
 12 13  2  0
 13 14  1  0
 14 15  2  0
 15 16  1  0
 16 17  1  0
 17 18  2  0
 18 19  1  0
 19 20  2  0
 20 21  1  0
 20 22  1  0
 22 23  2  0
 23 24  1  0
 15 25  1  0
 25 26  2  0
 25 27  1  0
 27 28  1  0
 27 29  1  0
 29 30  2  0
 31 32  1  0
 32 33  2  0
 32 34  1  0
 35 34  1  6
 35 36  1  0
 36 37  1  0
 37 38  2  0
 37 39  1  0
 39 40  1  0
 40 41  1  0
 41 42  2  0
 42 43  1  0
 43 44  2  0
 44 45  1  0
 45 46  2  0
 35 47  1  0
 47 48  2  0
 47 49  1  0
 49 50  1  0
 50 51  1  0
 51 52  1  0
 52 53  1  0
 52 54  2  0
  8  4  1  0
 30 10  1  0
 46 41  1  0
 29 13  1  0
 23 17  1  0
M  RAD  1  53   2
M  END

