
     RDKit          3D

 51 53  0  0  0  0  0  0  0  0999 V2000
    0.3696    4.0151    1.1948 C   0  0  0  0  0  0  0  0  0  0  0  0
    0.6388    2.7071    0.5656 C   0  0  0  0  0  0  0  0  0  0  0  0
    0.3276    2.9391   -0.9941 C   0  0  2  0  0  0  0  0  0  0  0  0
   -1.2083    3.3510   -0.8117 C   0  0  0  0  0  0  0  0  0  0  0  0
    0.0869    1.3283   -1.4542 C   0  0  2  0  0  0  0  0  0  0  0  0
   -1.0883    0.9740   -0.5208 N   0  0  0  0  0  0  0  0  0  0  0  0
   -1.7254   -0.2649   -0.7289 C   0  0  0  0  0  0  0  0  0  0  0  0
   -1.3324   -1.0163   -1.6326 O   0  0  0  0  0  0  0  0  0  0  0  0
   -2.8581   -0.5659    0.1976 C   0  0  0  0  0  0  0  0  0  0  0  0
   -3.4907   -1.9045   -0.0461 C   0  0  0  0  0  0  0  0  0  0  0  0
   -4.6051   -1.9745    1.0117 C   0  0  0  0  0  0  0  0  0  0  0  0
   -5.3762   -3.2524    0.9452 C   0  0  0  0  0  0  0  0  0  0  0  0
   -5.5802   -0.8589    0.5989 C   0  0  0  0  0  0  0  0  0  0  0  0
    1.2172    0.6389   -0.6154 C   0  0  0  0  0  0  0  0  0  0  0  0
    0.8409   -0.4322   -0.1495 O   0  0  0  0  0  0  0  0  0  0  0  0
    2.4643    1.1746   -0.4318 N   0  0  0  0  0  0  0  0  0  0  0  0
    3.4009    0.4116    0.3754 C   0  0  0  0  0  0  0  0  0  0  0  0
    3.5578   -0.8847   -0.3707 C   0  0  0  0  0  0  0  0  0  0  0  0
    4.4549   -1.8425    0.2417 C   0  0  0  0  0  0  0  0  0  0  0  0
    5.7957   -1.8319   -0.0917 O   0  0  0  0  0  1  0  0  0  0  0  0
    4.1103   -2.7111    1.0783 O   0  0  0  0  0  0  0  0  0  0  0  0
    3.6869   -0.8208    2.6357 C   0  0  0  0  0  0  0  0  0  0  0  0
    4.6219   -0.9841    1.2717 C   0  0  2  0  0  0  0  0  0  0  0  0
    5.6371    0.2661    1.7431 C   0  0  0  0  0  0  0  0  0  0  0  0
    6.5720    0.2924    0.6384 N   0  0  0  0  0  0  0  0  0  0  0  0
    6.5380    0.9618   -0.4889 N   0  0  0  0  0  0  0  0  0  0  0  0
    7.6346    0.6807   -1.2415 C   0  0  0  0  0  0  0  0  0  0  0  0
    8.3307   -0.2021   -0.4926 N   0  0  0  0  0  0  0  0  0  0  0  0
    7.6890   -0.4316    0.6341 N   0  0  0  0  0  0  0  0  0  0  0  0
    3.7037   -0.0039    0.4256 N   0  0  0  0  0  0  0  0  0  0  0  0
    2.3593   -0.4626    0.3243 C   0  0  0  0  0  0  0  0  0  0  0  0
    1.8934   -1.5899    0.8707 N   0  0  0  0  0  0  0  0  0  0  0  0
    0.5948   -1.9754    0.7382 C   0  0  0  0  0  0  0  0  0  0  0  0
   -0.2855   -1.1922    0.0210 C   0  0  0  0  0  0  0  0  0  0  0  0
   -1.6239   -1.5778   -0.1226 C   0  0  0  0  0  0  0  0  0  0  0  0
   -2.4580   -0.7557   -0.8501 C   0  0  0  0  0  0  0  0  0  0  0  0
   -3.7729   -1.1392   -0.9885 O   0  0  0  0  0  0  0  0  0  0  0  0
   -4.8499   -0.3916   -0.5519 C   0  0  0  0  0  0  0  0  0  0  0  0
   -5.8402    0.0716   -1.3849 C   0  0  0  0  0  0  0  0  0  0  0  0
   -6.8938    0.8140   -0.8969 C   0  0  0  0  0  0  0  0  0  0  0  0
   -6.9903    1.1173    0.4441 C   0  0  0  0  0  0  0  0  0  0  0  0
   -8.0284    1.8528    0.9472 F   0  0  0  0  0  0  0  0  0  0  0  0
   -5.9864    0.6427    1.2606 C   0  0  0  0  0  0  0  0  0  0  0  0
   -4.9226   -0.1021    0.7943 C   0  0  0  0  0  0  0  0  0  0  0  0
   -3.9575   -0.5423    1.6679 F   0  0  0  0  0  0  0  0  0  0  0  0
   -1.9292    0.3806   -1.3843 C   0  0  0  0  0  0  0  0  0  0  0  0
   -2.6968    1.1348   -2.0525 O   0  0  0  0  0  0  0  0  0  0  0  0
   -0.6393    0.7326   -1.2342 N   0  0  0  0  0  0  0  0  0  0  0  0
   -0.1031    1.9611   -1.8217 C   0  0  0  0  0  0  0  0  0  0  0  0
    0.2038   -0.0312   -0.5391 C   0  0  0  0  0  0  0  0  0  0  0  0
    1.5126    0.2938   -0.3674 N   0  0  0  0  0  0  0  0  0  0  0  0
  1  2  1  0
  2  3  1  0
  3  4  1  1
  3  5  1  0
  5  6  1  1
  6  7  1  0
  7  8  2  0
  7  9  1  0
  9 10  1  0
 10 11  1  0
 11 12  1  0
 11 13  1  0
  5 14  1  0
 14 15  2  0
 14 16  1  0
 16 17  1  0
 17 18  1  0
 18 19  1  0
 19 20  1  0
 19 21  2  0
 23 22  1  1
 23 24  1  0
 24 25  1  0
 25 26  1  0
 26 27  2  0
 27 28  1  0
 28 29  2  0
 23 30  1  0
 30 31  1  0
 31 32  2  0
 32 33  1  0
 33 34  2  0
 34 35  1  0
 35 36  2  0
 36 37  1  0
 37 38  1  0
 38 39  2  0
 39 40  1  0
 40 41  2  0
 41 42  1  0
 41 43  1  0
 43 44  2  0
 44 45  1  0
 36 46  1  0
 46 47  2  0
 46 48  1  0
 48 49  1  0
 48 50  1  0
 50 51  2  0
 29 25  1  0
 51 31  1  0
 50 34  1  0
 44 38  1  0
M  RAD  1  20   2
M  END

