
     RDKit          3D

 52 54  0  0  0  0  0  0  0  0999 V2000
    5.7337    1.0175   -1.1430 C   0  0  0  0  0  0  0  0  0  0  0  0
    6.1447    0.9711    0.2693 C   0  0  0  0  0  0  0  0  0  0  0  0
    7.6379    0.7374    0.4540 C   0  0  0  0  0  0  0  0  0  0  0  0
    5.3618    0.1809    1.2272 C   0  0  0  0  0  0  0  0  0  0  0  0
    3.9424    0.5075    1.4477 C   0  0  0  0  0  0  0  0  0  0  0  0
    3.0799    0.3476    0.2765 C   0  0  0  0  0  0  0  0  0  0  0  0
    3.4334   -0.2251   -0.8230 O   0  0  0  0  0  0  0  0  0  0  0  0
    1.7877    0.8163    0.2659 N   0  0  0  0  0  0  0  0  0  0  0  0
    0.8294    0.6730   -0.9294 C   0  0  1  0  0  0  0  0  0  0  0  0
    1.5921   -0.5028   -1.7503 C   0  0  0  0  0  0  0  0  0  0  0  0
    0.7483   -0.6651   -2.8610 O   0  0  0  0  0  0  0  0  0  0  0  0
   -0.2121   -0.2576   -0.2141 C   0  0  0  0  0  0  0  0  0  0  0  0
   -0.4329    0.0327    0.9665 O   0  0  0  0  0  0  0  0  0  0  0  0
   -0.8297   -1.3146   -0.8407 N   0  0  0  0  0  0  0  0  0  0  0  0
   -1.8160   -2.1827   -0.1832 C   0  0  0  0  0  0  0  0  0  0  0  0
   -2.9088   -1.2467    0.2055 C   0  0  0  0  0  0  0  0  0  0  0  0
   -4.0652   -1.9035    0.8976 C   0  0  0  0  0  0  0  0  0  0  0  0
   -5.0535   -0.7302    1.1480 C   0  0  0  0  0  0  0  0  0  0  0  0
   -5.3825   -0.1792   -0.1693 N   0  0  0  0  0  0  0  0  0  0  0  0
   -6.2511    0.9405   -0.2017 C   0  0  0  0  0  0  0  0  0  0  0  0
   -6.5771    1.4826   -1.4867 N   0  0  0  0  0  0  0  0  0  0  0  0
   -6.7624    1.5005    0.8276 N   0  0  0  0  0  4  0  0  0  0  0  0
    4.5512    0.2731   -2.5156 C   0  0  0  0  0  0  0  0  0  0  0  0
    4.6915    1.7488   -1.7730 C   0  0  2  0  0  0  0  0  0  0  0  0
    6.1874    1.4387   -1.1564 C   0  0  0  0  0  0  0  0  0  0  0  0
    6.0801    0.2917   -0.3132 N   0  0  0  0  0  0  0  0  0  0  0  0
    6.2168   -0.9978   -0.5960 N   0  0  0  0  0  0  0  0  0  0  0  0
    6.0300   -1.7375    0.5092 C   0  0  0  0  0  0  0  0  0  0  0  0
    5.7725   -0.8511    1.4857 N   0  0  0  0  0  0  0  0  0  0  0  0
    5.8124    0.3526    0.9489 N   0  0  0  0  0  0  0  0  0  0  0  0
    3.9067    1.2977   -0.4827 N   0  0  0  0  0  0  0  0  0  0  0  0
    2.5902    0.9028   -0.8314 C   0  0  0  0  0  0  0  0  0  0  0  0
    2.0700    0.9039   -2.0607 N   0  0  0  0  0  0  0  0  0  0  0  0
    0.8288    0.5258   -2.3488 C   0  0  0  0  0  0  0  0  0  0  0  0
    0.0195    0.1064   -1.3365 C   0  0  0  0  0  0  0  0  0  0  0  0
   -1.2665   -0.2957   -1.5636 C   0  0  0  0  0  0  0  0  0  0  0  0
   -2.0231   -0.7092   -0.4680 C   0  0  0  0  0  0  0  0  0  0  0  0
   -3.3128   -1.1084   -0.7237 O   0  0  0  0  0  0  0  0  0  0  0  0
   -4.4165   -0.5192   -0.1857 C   0  0  0  0  0  0  0  0  0  0  0  0
   -4.2691    0.5426    0.6696 C   0  0  0  0  0  0  0  0  0  0  0  0
   -5.3815    1.1693    1.2385 C   0  0  0  0  0  0  0  0  0  0  0  0
   -6.6323    0.6787    0.9064 C   0  0  0  0  0  0  0  0  0  0  0  0
   -7.7563    1.2478    1.4292 F   0  0  0  0  0  0  0  0  0  0  0  0
   -6.8101   -0.3775    0.0573 C   0  0  0  0  0  0  0  0  0  0  0  0
   -5.6775   -0.9686   -0.4837 C   0  0  0  0  0  0  0  0  0  0  0  0
   -5.8165   -2.0224   -1.3329 F   0  0  0  0  0  0  0  0  0  0  0  0
   -1.4864   -0.7089    0.7898 C   0  0  0  0  0  0  0  0  0  0  0  0
   -2.2320   -1.0960    1.7278 O   0  0  0  0  0  0  0  0  0  0  0  0
   -0.2213   -0.3134    1.0138 N   0  0  0  0  0  0  0  0  0  0  0  0
    0.2831   -0.3365    2.3582 C   0  0  0  0  0  0  0  0  0  0  0  0
    0.4996    0.0828   -0.0452 C   0  0  0  0  0  0  0  0  0  0  0  0
    1.7621    0.4795    0.1642 N   0  0  0  0  0  0  0  0  0  0  0  0
  1  2  1  0
  2  3  1  0
  2  4  1  0
  4  5  1  0
  5  6  1  0
  6  7  2  0
  6  8  1  0
  8  9  1  0
  9 10  1  6
 10 11  1  0
  9 12  1  0
 12 13  2  0
 12 14  1  0
 14 15  1  0
 15 16  1  0
 16 17  1  0
 17 18  1  0
 18 19  1  0
 19 20  1  0
 20 21  1  0
 20 22  2  0
 24 23  1  6
 24 25  1  0
 25 26  1  0
 26 27  1  0
 27 28  2  0
 28 29  1  0
 29 30  2  0
 24 31  1  0
 31 32  1  0
 32 33  2  0
 33 34  1  0
 34 35  2  0
 35 36  1  0
 36 37  2  0
 37 38  1  0
 38 39  1  0
 39 40  2  0
 40 41  1  0
 41 42  2  0
 42 43  1  0
 42 44  1  0
 44 45  2  0
 45 46  1  0
 37 47  1  0
 47 48  2  0
 47 49  1  0
 49 50  1  0
 49 51  1  0
 51 52  2  0
 30 26  1  0
 52 32  1  0
 51 35  1  0
 45 39  1  0
M  CHG  1  22   1
M  END

