
     RDKit          3D

 53 55  0  0  0  0  0  0  0  0999 V2000
   -4.1825    0.9119   -2.4391 C   0  0  0  0  0  0  0  0  0  0  0  0
   -3.2559   -0.2481   -2.1396 C   0  0  0  0  0  0  0  0  0  0  0  0
   -1.7895    0.3919   -2.2275 C   0  0  2  0  0  0  0  0  0  0  0  0
   -0.9666   -0.9391   -1.8904 C   0  0  0  0  0  0  0  0  0  0  0  0
   -1.8929    1.0829   -0.6613 C   0  0  2  0  0  0  0  0  0  0  0  0
   -0.5622    1.6588   -0.7229 N   0  0  0  0  0  0  0  0  0  0  0  0
    0.5296    1.9052   -0.0446 C   0  0  0  0  0  0  0  0  0  0  0  0
    0.6286    1.5787    1.1488 O   0  0  0  0  0  0  0  0  0  0  0  0
    1.6561    2.6021   -0.7794 C   0  0  0  0  0  0  0  0  0  0  0  0
    2.8239    2.6802    0.1673 C   0  0  0  0  0  0  0  0  0  0  0  0
    3.2096    1.2569    0.5265 C   0  0  0  0  0  0  0  0  0  0  0  0
    3.5547    0.6087   -0.8233 C   0  0  0  0  0  0  0  0  0  0  0  0
    3.9662   -0.7742   -0.6023 N   0  0  0  0  0  0  0  0  0  0  0  0
    5.1151   -0.9891    0.2174 C   0  0  0  0  0  0  0  0  0  0  0  0
    5.6445   -2.2680    0.5286 N   0  0  0  0  0  0  0  0  0  0  0  0
    5.7041    0.0785    0.7024 N   0  0  0  0  0  4  0  0  0  0  0  0
   -1.9098   -0.1523    0.2311 C   0  0  0  0  0  0  0  0  0  0  0  0
   -1.1354   -0.1136    1.1742 O   0  0  0  0  0  0  0  0  0  0  0  0
   -2.6850   -1.2680    0.0834 N   0  0  0  0  0  0  0  0  0  0  0  0
   -2.9762   -2.4516    0.6247 C   0  0  0  0  0  0  0  0  0  0  0  0
   -3.6461   -2.5424    2.0715 C   0  0  1  0  0  0  0  0  0  0  0  0
   -2.9192   -1.2460    2.7099 C   0  0  0  0  0  0  0  0  0  0  0  0
   -4.9112   -1.7634    1.6979 O   0  0  0  0  0  0  0  0  0  0  0  0
   -4.2177    1.3159   -0.3352 C   0  0  0  0  0  0  0  0  0  0  0  0
   -4.8988   -0.1859   -0.2727 C   0  0  2  0  0  0  0  0  0  0  0  0
   -5.9667    0.2412    0.9366 C   0  0  0  0  0  0  0  0  0  0  0  0
   -6.7421    1.3051    0.3768 N   0  0  0  0  0  0  0  0  0  0  0  0
   -6.3532    2.5813    0.5097 N   0  0  0  0  0  0  0  0  0  0  0  0
   -7.2377    3.3649   -0.0938 C   0  0  0  0  0  0  0  0  0  0  0  0
   -8.1781    2.5611   -0.6016 N   0  0  0  0  0  0  0  0  0  0  0  0
   -7.8652    1.3022   -0.3080 N   0  0  0  0  0  0  0  0  0  0  0  0
   -3.8406   -0.7214    0.7591 N   0  0  0  0  0  0  0  0  0  0  0  0
   -2.5308   -0.6621    0.2416 C   0  0  0  0  0  0  0  0  0  0  0  0
   -2.2333   -0.2017   -0.9864 N   0  0  0  0  0  0  0  0  0  0  0  0
   -0.9800   -0.1624   -1.4383 C   0  0  0  0  0  0  0  0  0  0  0  0
    0.0546   -0.6089   -0.6207 C   0  0  0  0  0  0  0  0  0  0  0  0
    1.3527   -0.6109   -0.9816 C   0  0  0  0  0  0  0  0  0  0  0  0
    2.3795   -1.0855   -0.0917 C   0  0  0  0  0  0  0  0  0  0  0  0
    3.6083   -1.0325   -0.5758 O   0  0  0  0  0  0  0  0  0  0  0  0
    4.7664   -0.4609   -0.3899 C   0  0  0  0  0  0  0  0  0  0  0  0
    5.1748    0.4071   -1.4465 C   0  0  0  0  0  0  0  0  0  0  0  0
    6.3309    1.0847   -1.4458 C   0  0  0  0  0  0  0  0  0  0  0  0
    7.1975    0.9608   -0.3830 C   0  0  0  0  0  0  0  0  0  0  0  0
    8.3558    1.6332   -0.3699 F   0  0  0  0  0  0  0  0  0  0  0  0
    6.8559    0.1423    0.6549 C   0  0  0  0  0  0  0  0  0  0  0  0
    5.6357   -0.5633    0.6365 C   0  0  0  0  0  0  0  0  0  0  0  0
    5.4015   -1.3793    1.6992 F   0  0  0  0  0  0  0  0  0  0  0  0
    1.9904   -1.5315    1.1233 C   0  0  0  0  0  0  0  0  0  0  0  0
    2.7579   -1.9734    1.9941 O   0  0  0  0  0  0  0  0  0  0  0  0
    0.6796   -1.5245    1.4767 N   0  0  0  0  0  0  0  0  0  0  0  0
    0.3115   -2.0117    2.7906 C   0  0  0  0  0  0  0  0  0  0  0  0
   -0.2700   -1.0753    0.6297 C   0  0  0  0  0  0  0  0  0  0  0  0
   -1.5385   -1.1088    1.0713 N   0  0  0  0  0  0  0  0  0  0  0  0
  1  2  1  0
  2  3  1  0
  3  4  1  1
  3  5  1  0
  5  6  1  1
  6  7  1  0
  7  8  2  0
  7  9  1  0
  9 10  1  0
 10 11  1  0
 11 12  1  0
 12 13  1  0
 13 14  1  0
 14 15  1  0
 14 16  2  0
  5 17  1  0
 17 18  2  0
 17 19  1  0
 19 20  1  0
 20 21  1  0
 21 22  1  1
 21 23  1  0
 25 24  1  1
 25 26  1  0
 26 27  1  0
 27 28  1  0
 28 29  2  0
 29 30  1  0
 30 31  2  0
 25 32  1  0
 32 33  1  0
 33 34  2  0
 34 35  1  0
 35 36  2  0
 36 37  1  0
 37 38  2  0
 38 39  1  0
 39 40  1  0
 40 41  2  0
 41 42  1  0
 42 43  2  0
 43 44  1  0
 43 45  1  0
 45 46  2  0
 46 47  1  0
 38 48  1  0
 48 49  2  0
 48 50  1  0
 50 51  1  0
 50 52  1  0
 52 53  2  0
 31 27  1  0
 53 33  1  0
 52 36  1  0
 46 40  1  0
M  CHG  1  16   1
M  END

