
     RDKit          3D

 50 52  0  0  0  0  0  0  0  0999 V2000
   -4.5549    3.8946   -1.7531 C   0  0  0  0  0  0  0  0  0  0  0  0
   -4.3608    2.6510   -0.6731 C   0  0  1  0  0  0  0  0  0  0  0  0
   -5.0509    1.6688   -1.5984 O   0  0  0  0  0  0  0  0  0  0  0  0
   -2.8593    2.2992   -1.2335 C   0  0  0  0  0  0  0  0  0  0  0  0
   -2.3679    1.1773   -0.4483 C   0  0  0  0  0  0  0  0  0  0  0  0
   -3.0770    0.6602    0.4530 O   0  0  0  0  0  0  0  0  0  0  0  0
   -1.1534    0.5924   -0.5917 N   0  0  0  0  0  0  0  0  0  0  0  0
   -0.7053   -0.5989    0.2792 C   0  0  1  0  0  0  0  0  0  0  0  0
   -0.6774   -1.6735   -0.9447 C   0  0  0  0  0  0  0  0  0  0  0  0
   -0.2677   -2.9583   -0.3644 C   0  0  0  0  0  0  0  0  0  0  0  0
   -0.1661   -4.0275   -1.2185 O   0  0  0  0  0  1  0  0  0  0  0  0
   -0.0060   -3.1505    0.8440 O   0  0  0  0  0  0  0  0  0  0  0  0
    0.8252   -0.2755    0.3013 C   0  0  0  0  0  0  0  0  0  0  0  0
    1.1118    0.9128    0.1990 O   0  0  0  0  0  0  0  0  0  0  0  0
    1.8192   -1.1897    0.4195 N   0  0  0  0  0  0  0  0  0  0  0  0
    3.1539   -1.3616    0.4845 C   0  0  0  0  0  0  0  0  0  0  0  0
    4.2279   -1.0369    1.2572 C   0  0  0  0  0  0  0  0  0  0  0  0
    4.5265    0.3729    1.4165 C   0  0  0  0  0  0  0  0  0  0  0  0
    5.6272    0.6653    2.2341 O   0  0  0  0  0  1  0  0  0  0  0  0
    3.9549    1.3780    0.9374 O   0  0  0  0  0  0  0  0  0  0  0  0
    4.0617    2.6616    0.0256 C   0  0  0  0  0  0  0  0  0  0  0  0
    4.7697    1.2291    0.4421 C   0  0  2  0  0  0  0  0  0  0  0  0
    4.1091    0.4195   -0.8303 C   0  0  0  0  0  0  0  0  0  0  0  0
    4.6058   -0.9325   -0.6810 N   0  0  0  0  0  0  0  0  0  0  0  0
    5.7557   -1.3209   -1.2494 N   0  0  0  0  0  0  0  0  0  0  0  0
    5.9125   -2.6073   -0.9157 C   0  0  0  0  0  0  0  0  0  0  0  0
    4.8750   -3.0006   -0.1548 N   0  0  0  0  0  0  0  0  0  0  0  0
    4.0915   -1.9460   -0.0309 N   0  0  0  0  0  0  0  0  0  0  0  0
    3.6780    0.7635    1.4576 N   0  0  0  0  0  0  0  0  0  0  0  0
    2.3685    0.6063    1.1245 C   0  0  0  0  0  0  0  0  0  0  0  0
    1.4767    0.2033    2.0362 N   0  0  0  0  0  0  0  0  0  0  0  0
    0.1879    0.0393    1.7508 C   0  0  0  0  0  0  0  0  0  0  0  0
   -0.2294    0.2990    0.4593 C   0  0  0  0  0  0  0  0  0  0  0  0
   -1.5313    0.1535    0.0937 C   0  0  0  0  0  0  0  0  0  0  0  0
   -1.9362    0.4147   -1.1946 C   0  0  0  0  0  0  0  0  0  0  0  0
   -3.2591    0.2698   -1.5777 O   0  0  0  0  0  0  0  0  0  0  0  0
   -4.1492   -0.1516   -0.5748 C   0  0  0  0  0  0  0  0  0  0  0  0
   -4.8605   -1.3232   -0.6945 C   0  0  0  0  0  0  0  0  0  0  0  0
   -5.7284   -1.7201    0.2985 C   0  0  0  0  0  0  0  0  0  0  0  0
   -5.9364   -0.9888    1.4479 C   0  0  0  0  0  0  0  0  0  0  0  0
   -6.8032   -1.4414    2.3777 F   0  0  0  0  0  0  0  0  0  0  0  0
   -5.2153    0.1801    1.5484 C   0  0  0  0  0  0  0  0  0  0  0  0
   -4.3428    0.5937    0.5663 C   0  0  0  0  0  0  0  0  0  0  0  0
   -3.6362    1.7554    0.6764 F   0  0  0  0  0  0  0  0  0  0  0  0
   -0.9985    0.8300   -2.1210 C   0  0  0  0  0  0  0  0  0  0  0  0
   -1.4006    1.0603   -3.2889 O   0  0  0  0  0  0  0  0  0  0  0  0
    0.2720    0.9697   -1.7553 N   0  0  0  0  0  0  0  0  0  0  0  0
    1.2290    1.4061   -2.7491 C   0  0  0  0  0  0  0  0  0  0  0  0
    0.6722    0.7152   -0.4962 C   0  0  0  0  0  0  0  0  0  0  0  0
    1.9618    0.8621   -0.1446 N   0  0  0  0  0  0  0  0  0  0  0  0
  2  1  1  6
  2  3  1  0
  2  4  1  0
  4  5  1  0
  5  6  2  0
  5  7  1  0
  7  8  1  0
  8  9  1  6
  9 10  1  0
 10 11  1  0
 10 12  2  0
  8 13  1  0
 13 14  2  0
 13 15  1  0
 15 16  1  0
 16 17  1  0
 17 18  1  0
 18 19  1  0
 18 20  2  0
 22 21  1  6
 22 23  1  0
 23 24  1  0
 24 25  1  0
 25 26  2  0
 26 27  1  0
 27 28  2  0
 22 29  1  0
 29 30  1  0
 30 31  2  0
 31 32  1  0
 32 33  2  0
 33 34  1  0
 34 35  2  0
 35 36  1  0
 36 37  1  0
 37 38  2  0
 38 39  1  0
 39 40  2  0
 40 41  1  0
 40 42  1  0
 42 43  2  0
 43 44  1  0
 35 45  1  0
 45 46  2  0
 45 47  1  0
 47 48  1  0
 47 49  1  0
 49 50  2  0
 28 24  1  0
 50 30  1  0
 49 33  1  0
 43 37  1  0
M  RAD  2  11   2  19   2
M  END

