
     RDKit          3D

 49 51  0  0  0  0  0  0  0  0999 V2000
    4.2500   -0.7968    3.1741 C   0  0  0  0  0  0  0  0  0  0  0  0
    3.4696   -0.1916    2.0084 C   0  0  0  0  0  0  0  0  0  0  0  0
    3.6486    1.3176    2.0863 C   0  0  0  0  0  0  0  0  0  0  0  0
    4.1062   -0.7363    0.7240 C   0  0  0  0  0  0  0  0  0  0  0  0
    3.3939   -0.1816   -0.4869 C   0  0  0  0  0  0  0  0  0  0  0  0
    1.9539   -0.5574   -0.4846 C   0  0  0  0  0  0  0  0  0  0  0  0
    1.4246   -1.2551    0.4137 O   0  0  0  0  0  0  0  0  0  0  0  0
    1.1580   -0.1372   -1.4915 N   0  0  0  0  0  0  0  0  0  0  0  0
   -0.3762   -0.4725   -1.5994 C   0  0  1  0  0  0  0  0  0  0  0  0
   -0.5882   -1.2370   -0.1539 C   0  0  0  0  0  0  0  0  0  0  0  0
   -1.9929   -1.6119   -0.1711 C   0  0  0  0  0  0  0  0  0  0  0  0
   -2.5709   -2.1997    0.9338 O   0  0  0  0  0  1  0  0  0  0  0  0
   -2.6965   -1.4120   -1.1704 O   0  0  0  0  0  0  0  0  0  0  0  0
   -0.8731    0.9628   -1.0901 C   0  0  0  0  0  0  0  0  0  0  0  0
   -0.0936    1.8409   -0.7966 O   0  0  0  0  0  0  0  0  0  0  0  0
   -2.2619    1.1615   -0.9964 N   0  0  0  0  0  0  0  0  0  0  0  0
   -2.9039    2.3855   -0.5601 C   0  0  0  0  0  0  0  0  0  0  0  0
   -4.4155    2.0994   -0.6106 C   0  0  0  0  0  0  0  0  0  0  0  0
   -4.6321    1.0216    0.2714 O   0  0  0  0  0  0  0  0  0  0  0  0
    3.6429   -1.8043    0.3891 C   0  0  0  0  0  0  0  0  0  0  0  0
    4.1159   -0.6649   -0.7200 C   0  0  2  0  0  0  0  0  0  0  0  0
    5.7095   -0.7305   -0.2052 C   0  0  0  0  0  0  0  0  0  0  0  0
    6.3936    0.2100   -1.0388 N   0  0  0  0  0  0  0  0  0  0  0  0
    6.9937    0.0325   -2.2204 N   0  0  0  0  0  0  0  0  0  0  0  0
    7.4953    1.2096   -2.6128 C   0  0  0  0  0  0  0  0  0  0  0  0
    7.1862    2.0966   -1.6467 N   0  0  0  0  0  0  0  0  0  0  0  0
    6.5211    1.4964   -0.6951 N   0  0  0  0  0  0  0  0  0  0  0  0
    3.7612    0.5373    0.2530 N   0  0  0  0  0  0  0  0  0  0  0  0
    2.3671    0.5340    0.6181 C   0  0  0  0  0  0  0  0  0  0  0  0
    1.9401    1.5081    1.4433 N   0  0  0  0  0  0  0  0  0  0  0  0
    0.6511    1.5451    1.8102 C   0  0  0  0  0  0  0  0  0  0  0  0
   -0.2575    0.6164    1.3703 C   0  0  0  0  0  0  0  0  0  0  0  0
   -1.5785    0.6352    1.7324 C   0  0  0  0  0  0  0  0  0  0  0  0
   -2.3868   -0.3631    1.2151 C   0  0  0  0  0  0  0  0  0  0  0  0
   -3.7182   -0.3661    1.5640 O   0  0  0  0  0  0  0  0  0  0  0  0
   -4.6997   -0.2573    0.5867 C   0  0  0  0  0  0  0  0  0  0  0  0
   -5.6543   -1.2341    0.3894 C   0  0  0  0  0  0  0  0  0  0  0  0
   -6.6076   -1.0476   -0.6161 C   0  0  0  0  0  0  0  0  0  0  0  0
   -6.6151    0.0805   -1.4079 C   0  0  0  0  0  0  0  0  0  0  0  0
   -7.5452    0.2471   -2.3783 F   0  0  0  0  0  0  0  0  0  0  0  0
   -5.6578    1.0545   -1.2063 C   0  0  0  0  0  0  0  0  0  0  0  0
   -4.6988    0.8749   -0.2003 C   0  0  0  0  0  0  0  0  0  0  0  0
   -3.7491    1.8196    0.0147 F   0  0  0  0  0  0  0  0  0  0  0  0
   -1.9162   -1.3374    0.3783 C   0  0  0  0  0  0  0  0  0  0  0  0
   -2.6557   -2.2521   -0.0960 O   0  0  0  0  0  0  0  0  0  0  0  0
   -0.6072   -1.3372    0.0333 N   0  0  0  0  0  0  0  0  0  0  0  0
   -0.0958   -2.3725   -0.8590 C   0  0  0  0  0  0  0  0  0  0  0  0
    0.1811   -0.3672    0.5351 C   0  0  0  0  0  0  0  0  0  0  0  0
    1.4846   -0.3636    0.1940 N   0  0  0  0  0  0  0  0  0  0  0  0
  1  2  1  0
  2  3  1  0
  2  4  1  0
  4  5  1  0
  5  6  1  0
  6  7  2  0
  6  8  1  0
  8  9  1  0
  9 10  1  1
 10 11  1  0
 11 12  1  0
 11 13  2  0
  9 14  1  0
 14 15  2  0
 14 16  1  0
 16 17  1  0
 17 18  1  0
 18 19  1  0
 21 20  1  1
 21 22  1  0
 22 23  1  0
 23 24  1  0
 24 25  2  0
 25 26  1  0
 26 27  2  0
 21 28  1  0
 28 29  1  0
 29 30  2  0
 30 31  1  0
 31 32  2  0
 32 33  1  0
 33 34  2  0
 34 35  1  0
 35 36  1  0
 36 37  2  0
 37 38  1  0
 38 39  2  0
 39 40  1  0
 39 41  1  0
 41 42  2  0
 42 43  1  0
 34 44  1  0
 44 45  2  0
 44 46  1  0
 46 47  1  0
 46 48  1  0
 48 49  2  0
 27 23  1  0
 49 29  1  0
 48 32  1  0
 42 36  1  0
M  RAD  1  12   2
M  END

