
     RDKit          3D

 43 45  0  0  0  0  0  0  0  0999 V2000
   -5.1124    0.7817   -0.4000 C   0  0  0  0  0  0  0  0  0  0  0  0
   -3.6827    1.2646   -0.0846 C   0  0  0  0  0  0  0  0  0  0  0  0
   -2.8392    0.0704   -0.1935 N   0  0  0  0  0  0  0  0  0  0  0  0
   -1.4908    0.2042    0.0435 C   0  0  0  0  0  0  0  0  0  0  0  0
   -0.9825    1.2834    0.3242 O   0  0  0  0  0  0  0  0  0  0  0  0
   -0.5107   -1.0406   -0.0242 C   0  0  2  0  0  0  0  0  0  0  0  0
   -1.2615   -1.9375    1.1874 C   0  0  0  0  0  0  0  0  0  0  0  0
    0.5626   -0.4691    0.9693 N   0  0  0  0  0  0  0  0  0  0  0  0
    1.8564   -0.4260    0.3914 C   0  0  0  0  0  0  0  0  0  0  0  0
    2.0796   -0.7979   -0.7838 O   0  0  0  0  0  0  0  0  0  0  0  0
    2.9732    0.0811    1.2132 C   0  0  0  0  0  0  0  0  0  0  0  0
    4.2483   -0.0057    0.4632 C   0  0  0  0  0  0  0  0  0  0  0  0
    4.1597    0.9915   -1.0547 S   0  0  0  0  0  0  0  0  0  0  0  0
    5.8953   -1.8343   -0.2323 C   0  0  0  0  0  0  0  0  0  0  0  0
    4.4362   -1.0407   -0.2795 C   0  0  2  0  0  0  0  0  0  0  0  0
    4.6294   -0.4108    1.2433 C   0  0  0  0  0  0  0  0  0  0  0  0
    5.8406    0.3824    1.1550 N   0  0  0  0  0  0  0  0  0  0  0  0
    7.0567   -0.0745    1.3934 N   0  0  0  0  0  0  0  0  0  0  0  0
    7.9753    0.8905    1.2315 C   0  0  0  0  0  0  0  0  0  0  0  0
    7.2906    1.9860    0.8784 N   0  0  0  0  0  0  0  0  0  0  0  0
    6.0220    1.6510    0.8415 N   0  0  0  0  0  0  0  0  0  0  0  0
    3.6400   -2.3005    0.2419 N   0  0  0  0  0  0  0  0  0  0  0  0
    2.2367   -2.0293    0.3555 C   0  0  0  0  0  0  0  0  0  0  0  0
    1.3795   -2.9860    0.7877 N   0  0  0  0  0  0  0  0  0  0  0  0
    0.0663   -2.7695    0.9061 C   0  0  0  0  0  0  0  0  0  0  0  0
   -0.4908   -1.5359    0.5872 C   0  0  0  0  0  0  0  0  0  0  0  0
   -1.8088   -1.2679    0.6891 C   0  0  0  0  0  0  0  0  0  0  0  0
   -2.2941    0.0358    0.3371 C   0  0  0  0  0  0  0  0  0  0  0  0
   -3.6165    0.2354    0.4642 O   0  0  0  0  0  0  0  0  0  0  0  0
   -4.7126    0.5035   -0.2559 C   0  0  0  0  0  0  0  0  0  0  0  0
   -5.7096   -0.5352   -0.2955 C   0  0  0  0  0  0  0  0  0  0  0  0
   -6.8657   -0.3975   -0.9849 C   0  0  0  0  0  0  0  0  0  0  0  0
   -7.1849    0.7336   -1.6990 C   0  0  0  0  0  0  0  0  0  0  0  0
   -8.3567    0.8230   -2.3775 F   0  0  0  0  0  0  0  0  0  0  0  0
   -6.2595    1.7404   -1.6813 C   0  0  0  0  0  0  0  0  0  0  0  0
   -5.0505    1.6118   -0.9669 C   0  0  0  0  0  0  0  0  0  0  0  0
   -4.2105    2.6874   -0.9793 F   0  0  0  0  0  0  0  0  0  0  0  0
   -1.3354    0.9060   -0.0804 C   0  0  0  0  0  0  0  0  0  0  0  0
   -1.6173    2.1002   -0.4212 O   0  0  0  0  0  0  0  0  0  0  0  0
   -0.0093    0.6432   -0.1858 N   0  0  0  0  0  0  0  0  0  0  0  0
    0.9226    1.6679   -0.6503 C   0  0  0  0  0  0  0  0  0  0  0  0
    0.4114   -0.5774    0.1480 C   0  0  0  0  0  0  0  0  0  0  0  0
    1.7197   -0.8386    0.0448 N   0  0  0  0  0  0  0  0  0  0  0  0
  1  2  1  0
  2  3  1  0
  3  4  1  0
  4  5  2  0
  4  6  1  0
  6  7  1  1
  6  8  1  0
  8  9  1  0
  9 10  2  0
  9 11  1  0
 11 12  1  0
 12 13  1  0
 15 14  1  1
 15 16  1  0
 16 17  1  0
 17 18  1  0
 18 19  2  0
 19 20  1  0
 20 21  2  0
 15 22  1  0
 22 23  1  0
 23 24  2  0
 24 25  1  0
 25 26  2  0
 26 27  1  0
 27 28  2  0
 28 29  1  0
 29 30  1  0
 30 31  2  0
 31 32  1  0
 32 33  2  0
 33 34  1  0
 33 35  1  0
 35 36  2  0
 36 37  1  0
 28 38  1  0
 38 39  2  0
 38 40  1  0
 40 41  1  0
 40 42  1  0
 42 43  2  0
 21 17  1  0
 43 23  1  0
 42 26  1  0
 36 30  1  0
M  END

