
     RDKit          3D

 59 63  0  0  0  0  0  0  0  0999 V2000
   -5.1791   -2.1275    3.9631 C   0  0  0  0  0  0  0  0  0  0  0  0
   -4.6180   -2.8422    2.5341 C   0  0  1  0  0  0  0  0  0  0  0  0
   -5.9312   -2.4750    1.7894 O   0  0  0  0  0  0  0  0  0  0  0  0
   -3.8781   -1.4297    2.0540 C   0  0  0  0  0  0  0  0  0  0  0  0
   -3.2679   -1.7943    0.7493 C   0  0  0  0  0  0  0  0  0  0  0  0
   -3.3756   -2.9260    0.2589 O   0  0  0  0  0  0  0  0  0  0  0  0
   -2.5231   -0.8140    0.0146 N   0  0  0  0  0  0  0  0  0  0  0  0
   -1.9296   -1.3206   -1.3450 C   0  0  1  0  0  0  0  0  0  0  0  0
   -1.9573    0.1421   -2.0951 C   0  0  0  0  0  0  0  0  0  0  0  0
   -1.1318    1.0977   -1.3500 C   0  0  0  0  0  0  0  0  0  0  0  0
   -1.6695    1.3024    0.0469 C   0  0  0  0  0  0  0  0  0  0  0  0
   -3.0437    1.8280    0.0013 N   0  0  0  0  0  0  0  0  0  0  0  0
   -3.3094    3.0857   -0.6445 C   0  0  0  0  0  0  0  0  0  0  0  0
   -4.6329    3.5825   -0.6839 N   0  0  0  0  0  0  0  0  0  0  0  0
   -2.3462    3.7507   -1.1814 N   0  0  0  0  0  4  0  0  0  0  0  0
   -0.3836   -1.2696   -0.9348 C   0  0  0  0  0  0  0  0  0  0  0  0
   -0.0736   -0.9073    0.1925 O   0  0  0  0  0  0  0  0  0  0  0  0
    0.5588   -1.6381   -1.8649 N   0  0  0  0  0  0  0  0  0  0  0  0
    1.8749   -1.7421   -1.9378 C   0  0  0  0  0  0  0  0  0  0  0  0
    3.0324   -1.0102   -1.8474 C   0  0  0  0  0  0  0  0  0  0  0  0
    3.4346   -0.3242   -0.6270 C   0  0  0  0  0  0  0  0  0  0  0  0
    2.8977   -0.2817    0.6363 C   0  0  0  0  0  0  0  0  0  0  0  0
    3.6379    0.4714    1.4281 N   0  0  0  0  0  0  0  0  0  0  0  0
    4.6740    0.9384    0.7022 C   0  0  0  0  0  0  0  0  0  0  0  0
    5.7447    1.7564    1.0079 C   0  0  0  0  0  0  0  0  0  0  0  0
    6.6888    2.0856    0.0584 C   0  0  0  0  0  0  0  0  0  0  0  0
    6.5872    1.6064   -1.2213 C   0  0  0  0  0  0  0  0  0  0  0  0
    5.5182    0.7793   -1.5628 C   0  0  0  0  0  0  0  0  0  0  0  0
    4.6016    0.4759   -0.5892 C   0  0  0  0  0  0  0  0  0  0  0  0
    5.8037   -0.1627    2.3681 C   0  0  0  0  0  0  0  0  0  0  0  0
    4.8362    0.0391    1.0250 C   0  0  2  0  0  0  0  0  0  0  0  0
    4.8056    1.7038    1.1905 C   0  0  0  0  0  0  0  0  0  0  0  0
    6.1858    2.0840    1.0950 N   0  0  0  0  0  0  0  0  0  0  0  0
    6.8449    2.3966   -0.0141 N   0  0  0  0  0  0  0  0  0  0  0  0
    8.1018    2.6795    0.4129 C   0  0  0  0  0  0  0  0  0  0  0  0
    8.1792    2.5354    1.7493 N   0  0  0  0  0  0  0  0  0  0  0  0
    6.9861    2.1681    2.1458 N   0  0  0  0  0  0  0  0  0  0  0  0
    3.4898   -0.1499    1.8331 N   0  0  0  0  0  0  0  0  0  0  0  0
    2.3021   -0.0582    1.0736 C   0  0  0  0  0  0  0  0  0  0  0  0
    2.3487    0.1765   -0.2545 N   0  0  0  0  0  0  0  0  0  0  0  0
    1.2441    0.2719   -1.0189 C   0  0  0  0  0  0  0  0  0  0  0  0
   -0.0124    0.1307   -0.4653 C   0  0  0  0  0  0  0  0  0  0  0  0
   -1.1816    0.2178   -1.1948 C   0  0  0  0  0  0  0  0  0  0  0  0
   -2.4339    0.0714   -0.6106 C   0  0  0  0  0  0  0  0  0  0  0  0
   -3.5470    0.1694   -1.3916 O   0  0  0  0  0  0  0  0  0  0  0  0
   -4.5119   -0.7784   -1.6015 C   0  0  0  0  0  0  0  0  0  0  0  0
   -4.5163   -2.0268   -1.0397 C   0  0  0  0  0  0  0  0  0  0  0  0
   -5.5376   -2.8982   -1.3215 C   0  0  0  0  0  0  0  0  0  0  0  0
   -6.5940   -2.5930   -2.1588 C   0  0  0  0  0  0  0  0  0  0  0  0
   -7.5870   -3.4865   -2.4118 F   0  0  0  0  0  0  0  0  0  0  0  0
   -6.5643   -1.3281   -2.7112 C   0  0  0  0  0  0  0  0  0  0  0  0
   -5.5484   -0.4376   -2.4417 C   0  0  0  0  0  0  0  0  0  0  0  0
   -5.5935    0.8046   -3.0334 F   0  0  0  0  0  0  0  0  0  0  0  0
   -2.4243   -0.1670    0.7499 C   0  0  0  0  0  0  0  0  0  0  0  0
   -3.5323   -0.3047    1.3133 O   0  0  0  0  0  0  0  0  0  0  0  0
   -1.2688   -0.2499    1.4525 N   0  0  0  0  0  0  0  0  0  0  0  0
   -1.3032   -0.5026    2.8856 C   0  0  0  0  0  0  0  0  0  0  0  0
   -0.0534   -0.1091    0.8933 C   0  0  0  0  0  0  0  0  0  0  0  0
    1.0821   -0.1959    1.6147 N   0  0  0  0  0  0  0  0  0  0  0  0
  2  1  1  1
  2  3  1  0
  2  4  1  0
  4  5  1  0
  5  6  2  0
  5  7  1  0
  7  8  1  0
  8  9  1  6
  9 10  1  0
 10 11  1  0
 11 12  1  0
 12 13  1  0
 13 14  1  0
 13 15  2  0
  8 16  1  0
 16 17  2  0
 16 18  1  0
 18 19  1  0
 19 20  1  0
 20 21  1  0
 21 22  2  0
 22 23  1  0
 23 24  1  0
 24 25  2  0
 25 26  1  0
 26 27  2  0
 27 28  1  0
 28 29  2  0
 31 30  1  1
 31 32  1  0
 32 33  1  0
 33 34  1  0
 34 35  2  0
 35 36  1  0
 36 37  2  0
 31 38  1  0
 38 39  1  0
 39 40  2  0
 40 41  1  0
 41 42  2  0
 42 43  1  0
 43 44  2  0
 44 45  1  0
 45 46  1  0
 46 47  2  0
 47 48  1  0
 48 49  2  0
 49 50  1  0
 49 51  1  0
 51 52  2  0
 52 53  1  0
 44 54  1  0
 54 55  2  0
 54 56  1  0
 56 57  1  0
 56 58  1  0
 58 59  2  0
 29 21  1  0
 37 33  1  0
 59 39  1  0
 29 24  1  0
 58 42  1  0
 52 46  1  0
M  CHG  1  15   1
M  END

