
     RDKit          3D

 52 55  0  0  0  0  0  0  0  0999 V2000
    5.3421    2.1854   -1.7654 C   0  0  0  0  0  0  0  0  0  0  0  0
    5.5783    1.0679   -0.7642 C   0  0  0  0  0  0  0  0  0  0  0  0
    4.0959    0.9892    0.0033 C   0  0  2  0  0  0  0  0  0  0  0  0
    4.6728   -0.2925    0.9090 C   0  0  0  0  0  0  0  0  0  0  0  0
    3.5124    0.0391   -1.1422 C   0  0  0  0  0  0  0  0  0  0  0  0
    2.2196   -0.2580   -1.0349 N   0  0  0  0  0  0  0  0  0  0  0  0
    1.5266   -0.7916    0.0478 C   0  0  0  0  0  0  0  0  0  0  0  0
    2.1131   -1.0565    1.1572 O   0  0  0  0  0  0  0  0  0  0  0  0
    0.1177   -1.0892   -0.0038 C   0  0  2  0  0  0  0  0  0  0  0  0
   -0.1351   -2.5120   -0.3441 C   0  0  0  0  0  0  0  0  0  0  0  0
   -1.4375   -3.0053   -0.4697 C   0  0  0  0  0  0  0  0  0  0  0  0
   -2.4822   -3.0708    0.4697 C   0  0  0  0  0  0  0  0  0  0  0  0
   -2.3879   -3.1612    1.8295 O   0  0  0  0  0  1  0  0  0  0  0  0
   -3.6826   -3.0374    0.0074 O   0  0  0  0  0  0  0  0  0  0  0  0
   -0.9516   -0.2732    0.0733 N   0  0  0  0  0  0  0  0  0  0  0  0
   -1.1176    1.1413    0.2771 C   0  0  0  0  0  0  0  0  0  0  0  0
   -0.0602    1.7172    0.4722 O   0  0  0  0  0  0  0  0  0  0  0  0
   -2.4073    1.7681    0.3024 C   0  0  2  0  0  0  0  0  0  0  0  0
   -3.3731    1.2586   -0.7617 C   0  0  0  0  0  0  0  0  0  0  0  0
   -4.6071    1.9823   -0.1385 C   0  0  0  0  0  0  0  0  0  0  0  0
   -4.0087    3.2237    0.5227 C   0  0  0  0  0  0  0  0  0  0  0  0
   -2.5277    3.1748    0.2484 N   0  0  0  0  0  0  0  0  0  0  0  0
    4.6701   -2.8559    1.5504 C   0  0  0  0  0  0  0  0  0  0  0  0
    5.2687   -1.7618    0.4651 C   0  0  2  0  0  0  0  0  0  0  0  0
    4.7629   -0.4659    1.3495 C   0  0  0  0  0  0  0  0  0  0  0  0
    5.1814    0.6760    0.5853 N   0  0  0  0  0  0  0  0  0  0  0  0
    4.5275    1.3123   -0.3435 N   0  0  0  0  0  0  0  0  0  0  0  0
    5.2747    2.3240   -0.8072 C   0  0  0  0  0  0  0  0  0  0  0  0
    6.4241    2.2662   -0.1048 N   0  0  0  0  0  0  0  0  0  0  0  0
    6.3419    1.2619    0.7295 N   0  0  0  0  0  0  0  0  0  0  0  0
    4.0114   -1.8112   -0.4646 N   0  0  0  0  0  0  0  0  0  0  0  0
    2.7583   -1.4968    0.0432 C   0  0  0  0  0  0  0  0  0  0  0  0
    2.4642   -1.1380    1.2863 N   0  0  0  0  0  0  0  0  0  0  0  0
    1.1957   -0.8644    1.6242 C   0  0  0  0  0  0  0  0  0  0  0  0
    0.1306   -0.9354    0.7216 C   0  0  0  0  0  0  0  0  0  0  0  0
   -1.1477   -0.6599    1.0591 C   0  0  0  0  0  0  0  0  0  0  0  0
   -2.2268   -0.7403    0.1099 C   0  0  0  0  0  0  0  0  0  0  0  0
   -3.4426   -0.4381    0.5995 O   0  0  0  0  0  0  0  0  0  0  0  0
   -4.3137    0.5357    0.3597 C   0  0  0  0  0  0  0  0  0  0  0  0
   -4.4958    1.4640    1.4342 C   0  0  0  0  0  0  0  0  0  0  0  0
   -5.3465    2.5138    1.3619 C   0  0  0  0  0  0  0  0  0  0  0  0
   -6.0998    2.7596    0.2388 C   0  0  0  0  0  0  0  0  0  0  0  0
   -6.9375    3.8101    0.1908 F   0  0  0  0  0  0  0  0  0  0  0  0
   -5.9617    1.8990   -0.8159 C   0  0  0  0  0  0  0  0  0  0  0  0
   -5.0695    0.7977   -0.7380 C   0  0  0  0  0  0  0  0  0  0  0  0
   -5.0352   -0.0377   -1.8067 F   0  0  0  0  0  0  0  0  0  0  0  0
   -1.8188   -1.1177   -1.1339 C   0  0  0  0  0  0  0  0  0  0  0  0
   -2.6602   -1.2351   -2.0668 O   0  0  0  0  0  0  0  0  0  0  0  0
   -0.5123   -1.3919   -1.4524 N   0  0  0  0  0  0  0  0  0  0  0  0
   -0.1839   -1.7830   -2.8010 C   0  0  0  0  0  0  0  0  0  0  0  0
    0.4785   -1.3122   -0.5613 C   0  0  0  0  0  0  0  0  0  0  0  0
    1.7619   -1.5748   -0.8469 N   0  0  0  0  0  0  0  0  0  0  0  0
  1  2  1  0
  2  3  1  0
  3  4  1  1
  3  5  1  0
  5  6  1  0
  6  7  1  0
  7  8  2  0
  7  9  1  0
  9 10  1  6
 10 11  1  0
 11 12  1  0
 12 13  1  0
 12 14  2  0
  9 15  1  0
 15 16  1  0
 16 17  2  0
 18 16  1  6
 18 19  1  0
 19 20  1  0
 20 21  1  0
 21 22  1  0
 24 23  1  1
 24 25  1  0
 25 26  1  0
 26 27  1  0
 27 28  2  0
 28 29  1  0
 29 30  2  0
 24 31  1  0
 31 32  1  0
 32 33  2  0
 33 34  1  0
 34 35  2  0
 35 36  1  0
 36 37  2  0
 37 38  1  0
 38 39  1  0
 39 40  2  0
 40 41  1  0
 41 42  2  0
 42 43  1  0
 42 44  1  0
 44 45  2  0
 45 46  1  0
 37 47  1  0
 47 48  2  0
 47 49  1  0
 49 50  1  0
 49 51  1  0
 51 52  2  0
 22 18  1  0
 30 26  1  0
 52 32  1  0
 51 35  1  0
 45 39  1  0
M  RAD  1  13   2
M  END

