
     RDKit          3D

 59 62  0  0  0  0  0  0  0  0999 V2000
    4.5068   -2.5163    0.6407 C   0  0  0  0  0  0  0  0  0  0  0  0
    4.8319   -2.0938   -0.9229 C   0  0  2  0  0  0  0  0  0  0  0  0
    6.3054   -1.4568   -0.5623 C   0  0  0  0  0  0  0  0  0  0  0  0
    6.1250   -0.4032    0.3660 N   0  0  0  0  0  0  0  0  0  0  0  0
    6.1117   -0.4169    1.6949 N   0  0  0  0  0  0  0  0  0  0  0  0
    5.9096    0.8020    2.1899 C   0  0  0  0  0  0  0  0  0  0  0  0
    5.7935    1.6022    1.0958 N   0  0  0  0  0  0  0  0  0  0  0  0
    5.9252    0.8612    0.0346 N   0  0  0  0  0  0  0  0  0  0  0  0
    4.0473   -0.7298   -0.8329 N   0  0  0  0  0  0  0  0  0  0  0  0
    2.6809   -0.9514   -0.5189 C   0  0  0  0  0  0  0  0  0  0  0  0
    2.0980   -2.1303   -0.3195 N   0  0  0  0  0  0  0  0  0  0  0  0
    0.7782   -2.2628   -0.0211 C   0  0  0  0  0  0  0  0  0  0  0  0
   -0.0218   -1.1374    0.0868 C   0  0  0  0  0  0  0  0  0  0  0  0
   -1.3736   -1.2084    0.3885 C   0  0  0  0  0  0  0  0  0  0  0  0
   -2.1380   -0.0604    0.4873 C   0  0  0  0  0  0  0  0  0  0  0  0
   -3.4636   -0.1697    0.7856 O   0  0  0  0  0  0  0  0  0  0  0  0
   -4.5125    0.2643   -0.0028 C   0  0  0  0  0  0  0  0  0  0  0  0
   -4.3383    0.8737   -1.2133 C   0  0  0  0  0  0  0  0  0  0  0  0
   -5.3832    1.2970   -1.9809 C   0  0  0  0  0  0  0  0  0  0  0  0
   -6.6574    1.0987   -1.5104 C   0  0  0  0  0  0  0  0  0  0  0  0
   -7.7025    1.5198   -2.2736 F   0  0  0  0  0  0  0  0  0  0  0  0
   -6.9044    0.4814   -0.2799 C   0  0  0  0  0  0  0  0  0  0  0  0
   -5.7996    0.0788    0.4432 C   0  0  0  0  0  0  0  0  0  0  0  0
   -6.0690   -0.5243    1.6473 F   0  0  0  0  0  0  0  0  0  0  0  0
   -1.4707    1.1229    0.2690 C   0  0  0  0  0  0  0  0  0  0  0  0
   -2.0967    2.1858    0.3425 O   0  0  0  0  0  0  0  0  0  0  0  0
   -0.1626    1.1806   -0.0223 N   0  0  0  0  0  0  0  0  0  0  0  0
    0.4930    2.4657   -0.2442 C   0  0  0  0  0  0  0  0  0  0  0  0
    0.5949    0.0764   -0.1222 C   0  0  0  0  0  0  0  0  0  0  0  0
    1.8925    0.1508   -0.4121 N   0  0  0  0  0  0  0  0  0  0  0  0
    6.1932    1.9219   -0.3578 N   0  0  0  0  0  0  0  0  0  0  0  0
    6.4335    0.5747   -0.0006 C   0  0  0  0  0  0  0  0  0  0  0  0
    7.0174   -0.1995   -0.8452 N   0  0  0  0  0  4  0  0  0  0  0  0
    6.0704    0.0036    1.2492 N   0  0  0  0  0  0  0  0  0  0  0  0
    6.3651   -1.3622    1.4917 C   0  0  0  0  0  0  0  0  0  0  0  0
    5.7926   -2.3734    0.5898 C   0  0  0  0  0  0  0  0  0  0  0  0
    4.3055   -2.4486    0.4921 C   0  0  0  0  0  0  0  0  0  0  0  0
    3.8066   -1.1222    0.0050 C   0  0  0  0  0  0  0  0  0  0  0  0
    2.3075   -1.1298   -0.1398 C   0  0  0  0  0  0  0  0  0  0  0  0
    1.6605   -2.1671    0.1373 O   0  0  0  0  0  0  0  0  0  0  0  0
    1.6732   -0.0128   -0.5702 N   0  0  0  0  0  0  0  0  0  0  0  0
    0.1376    0.1055   -0.7694 C   0  0  1  0  0  0  0  0  0  0  0  0
   -0.2465   -1.3773   -0.2459 C   0  0  0  0  0  0  0  0  0  0  0  0
   -1.7338   -1.4121   -0.3991 C   0  0  0  0  0  0  0  0  0  0  0  0
   -2.3254   -1.8081   -1.5816 C   0  0  0  0  0  0  0  0  0  0  0  0
   -3.6924   -1.8765   -1.7250 C   0  0  0  0  0  0  0  0  0  0  0  0
   -4.5175   -1.5379   -0.6479 C   0  0  0  0  0  0  0  0  0  0  0  0
   -5.9081   -1.5991   -0.7664 O   0  0  0  0  0  0  0  0  0  0  0  0
   -3.9512   -1.1401    0.5406 C   0  0  0  0  0  0  0  0  0  0  0  0
   -2.5869   -1.0895    0.6276 C   0  0  0  0  0  0  0  0  0  0  0  0
   -0.1740    0.8611    0.5782 C   0  0  0  0  0  0  0  0  0  0  0  0
    0.4021    0.8309    1.6023 O   0  0  0  0  0  0  0  0  0  0  0  0
   -1.3176    1.6638    0.4315 N   0  0  0  0  0  0  0  0  0  0  0  0
   -1.8332    2.4639    1.4811 C   0  0  0  0  0  0  0  0  0  0  0  0
   -3.0235    3.1962    0.9023 C   0  0  0  0  0  0  0  0  0  0  0  0
   -4.0325    2.1921    0.4291 C   0  0  0  0  0  0  0  0  0  0  0  0
   -5.2308    2.8104   -0.1556 C   0  0  0  0  0  0  0  0  0  0  0  0
   -6.2531    1.9531   -0.6614 N   0  0  0  0  0  0  0  0  0  0  0  0
   -5.3390    4.0792   -0.2017 O   0  0  0  0  0  0  0  0  0  0  0  0
  2  1  1  1
  2  3  1  0
  3  4  1  0
  4  5  1  0
  5  6  2  0
  6  7  1  0
  7  8  2  0
  2  9  1  0
  9 10  1  0
 10 11  2  0
 11 12  1  0
 12 13  2  0
 13 14  1  0
 14 15  2  0
 15 16  1  0
 16 17  1  0
 17 18  2  0
 18 19  1  0
 19 20  2  0
 20 21  1  0
 20 22  1  0
 22 23  2  0
 23 24  1  0
 15 25  1  0
 25 26  2  0
 25 27  1  0
 27 28  1  0
 27 29  1  0
 29 30  2  0
 31 32  1  0
 32 33  2  0
 32 34  1  0
 34 35  1  0
 35 36  1  0
 36 37  1  0
 37 38  1  0
 38 39  1  0
 39 40  2  0
 39 41  1  0
 41 42  1  0
 42 43  1  1
 43 44  1  0
 44 45  2  0
 45 46  1  0
 46 47  2  0
 47 48  1  0
 47 49  1  0
 49 50  2  0
 42 51  1  0
 51 52  2  0
 51 53  1  0
 53 54  1  0
 54 55  1  0
 55 56  1  0
 56 57  1  0
 57 58  1  0
 57 59  2  0
  8  4  1  0
 30 10  1  0
 50 44  1  0
 29 13  1  0
 23 17  1  0
M  CHG  1  33   1
M  END

