
     RDKit          3D

 52 54  0  0  0  0  0  0  0  0999 V2000
    5.8146    2.6562   -0.1552 C   0  0  0  0  0  0  0  0  0  0  0  0
    4.4583    3.2586   -0.3260 C   0  0  0  0  0  0  0  0  0  0  0  0
    3.9980    4.1148    0.8053 C   0  0  0  0  0  0  0  0  0  0  0  0
    3.4290    2.3288   -0.8792 C   0  0  0  0  0  0  0  0  0  0  0  0
    3.2984    1.1583    0.0744 C   0  0  0  0  0  0  0  0  0  0  0  0
    2.2615    0.2216   -0.4807 C   0  0  0  0  0  0  0  0  0  0  0  0
    1.6737    0.4888   -1.5620 O   0  0  0  0  0  0  0  0  0  0  0  0
    1.9228   -0.9707    0.1892 N   0  0  0  0  0  0  0  0  0  0  0  0
    0.8310   -1.8449   -0.5022 C   0  0  1  0  0  0  0  0  0  0  0  0
    0.9032   -2.9988    0.6541 C   0  0  0  0  0  0  0  0  0  0  0  0
   -0.0345   -4.0554    0.3399 C   0  0  0  0  0  0  0  0  0  0  0  0
    0.0994   -4.7993   -0.9154 C   0  0  0  0  0  0  0  0  0  0  0  0
   -1.2825   -4.1771    1.1057 C   0  0  0  0  0  0  0  0  0  0  0  0
   -0.4229   -1.1201    0.0792 C   0  0  0  0  0  0  0  0  0  0  0  0
   -0.4096   -0.1745    0.8413 O   0  0  0  0  0  0  0  0  0  0  0  0
   -1.6314   -1.6679   -0.3650 N   0  0  0  0  0  0  0  0  0  0  0  0
   -2.9158   -1.1550    0.0455 C   0  0  0  0  0  0  0  0  0  0  0  0
   -3.1019    0.2920   -0.3402 C   0  0  0  0  0  0  0  0  0  0  0  0
   -4.4671    0.7379    0.1291 C   0  0  0  0  0  0  0  0  0  0  0  0
   -4.6924    2.1546   -0.2272 C   0  0  0  0  0  0  0  0  0  0  0  0
   -5.9206    2.7377    0.1355 O   0  0  0  0  0  1  0  0  0  0  0  0
   -3.8109    2.8144   -0.8349 O   0  0  0  0  0  0  0  0  0  0  0  0
    4.1180   -1.2273   -0.2002 C   0  0  0  0  0  0  0  0  0  0  0  0
    4.5489   -0.2519   -1.4728 C   0  0  2  0  0  0  0  0  0  0  0  0
    5.9886    0.1623   -0.7709 C   0  0  0  0  0  0  0  0  0  0  0  0
    5.7269    0.7875    0.4626 N   0  0  0  0  0  0  0  0  0  0  0  0
    5.6366    0.0654    1.5948 N   0  0  0  0  0  0  0  0  0  0  0  0
    5.3824    0.8838    2.6336 C   0  0  0  0  0  0  0  0  0  0  0  0
    5.3248    2.1123    2.0827 N   0  0  0  0  0  0  0  0  0  0  0  0
    5.5305    2.0407    0.7969 N   0  0  0  0  0  0  0  0  0  0  0  0
    3.7023    0.9725   -0.9214 N   0  0  0  0  0  0  0  0  0  0  0  0
    2.3318    0.6597   -0.8117 C   0  0  0  0  0  0  0  0  0  0  0  0
    1.5244    1.6284   -0.3537 N   0  0  0  0  0  0  0  0  0  0  0  0
    0.1958    1.4797   -0.1946 C   0  0  0  0  0  0  0  0  0  0  0  0
   -0.3627    0.2541   -0.5247 C   0  0  0  0  0  0  0  0  0  0  0  0
   -1.7061   -0.0162   -0.4047 C   0  0  0  0  0  0  0  0  0  0  0  0
   -2.2337   -1.2513   -0.7429 C   0  0  0  0  0  0  0  0  0  0  0  0
   -3.5915   -1.5341   -0.6250 O   0  0  0  0  0  0  0  0  0  0  0  0
   -4.4178   -0.5282   -0.1512 C   0  0  0  0  0  0  0  0  0  0  0  0
   -5.4362   -0.1171   -1.0051 C   0  0  0  0  0  0  0  0  0  0  0  0
   -6.3228    0.8772   -0.6444 C   0  0  0  0  0  0  0  0  0  0  0  0
   -6.1802    1.4707    0.6046 C   0  0  0  0  0  0  0  0  0  0  0  0
   -7.0094    2.4451    1.0192 F   0  0  0  0  0  0  0  0  0  0  0  0
   -5.1702    1.0547    1.4372 C   0  0  0  0  0  0  0  0  0  0  0  0
   -4.2752    0.0592    1.0872 C   0  0  0  0  0  0  0  0  0  0  0  0
   -3.2854   -0.3483    1.9035 F   0  0  0  0  0  0  0  0  0  0  0  0
   -1.3271   -2.1914   -1.2068 C   0  0  0  0  0  0  0  0  0  0  0  0
   -1.7557   -3.3311   -1.5281 O   0  0  0  0  0  0  0  0  0  0  0  0
   -0.0167   -1.9320   -1.3252 N   0  0  0  0  0  0  0  0  0  0  0  0
    0.8564   -2.9772   -1.8198 C   0  0  0  0  0  0  0  0  0  0  0  0
    0.4541   -0.7375   -0.9920 C   0  0  0  0  0  0  0  0  0  0  0  0
    1.7690   -0.5096   -1.1219 N   0  0  0  0  0  0  0  0  0  0  0  0
  1  2  1  0
  2  3  1  0
  2  4  1  0
  4  5  1  0
  5  6  1  0
  6  7  2  0
  6  8  1  0
  8  9  1  0
  9 10  1  1
 10 11  1  0
 11 12  1  0
 11 13  1  0
  9 14  1  0
 14 15  2  0
 14 16  1  0
 16 17  1  0
 17 18  1  0
 18 19  1  0
 19 20  1  0
 20 21  1  0
 20 22  2  0
 24 23  1  1
 24 25  1  0
 25 26  1  0
 26 27  1  0
 27 28  2  0
 28 29  1  0
 29 30  2  0
 24 31  1  0
 31 32  1  0
 32 33  2  0
 33 34  1  0
 34 35  2  0
 35 36  1  0
 36 37  2  0
 37 38  1  0
 38 39  1  0
 39 40  2  0
 40 41  1  0
 41 42  2  0
 42 43  1  0
 42 44  1  0
 44 45  2  0
 45 46  1  0
 37 47  1  0
 47 48  2  0
 47 49  1  0
 49 50  1  0
 49 51  1  0
 51 52  2  0
 30 26  1  0
 52 32  1  0
 51 35  1  0
 45 39  1  0
M  RAD  1  21   2
M  END

