
     RDKit          3D

 54 57  0  0  0  0  0  0  0  0999 V2000
    5.9928   -2.6581    1.0213 C   0  0  0  0  0  0  0  0  0  0  0  0
    6.4735   -1.2559    1.2570 C   0  0  0  0  0  0  0  0  0  0  0  0
    6.3908   -0.9790    2.7455 C   0  0  0  0  0  0  0  0  0  0  0  0
    5.5724   -0.2880    0.5621 C   0  0  0  0  0  0  0  0  0  0  0  0
    4.1703   -0.4406    1.1072 C   0  0  0  0  0  0  0  0  0  0  0  0
    3.3415    0.5496    0.3723 C   0  0  0  0  0  0  0  0  0  0  0  0
    3.8167    1.3162   -0.5055 O   0  0  0  0  0  0  0  0  0  0  0  0
    1.9769    0.6115    0.6892 N   0  0  0  0  0  0  0  0  0  0  0  0
    1.0968    1.6684   -0.0915 C   0  0  1  0  0  0  0  0  0  0  0  0
    1.5843    1.1598   -1.5978 C   0  0  0  0  0  0  0  0  0  0  0  0
    0.8891    2.0246   -2.5525 C   0  0  0  0  0  0  0  0  0  0  0  0
    0.1128    3.0944   -2.1412 O   0  0  0  0  0  1  0  0  0  0  0  0
    1.0048    1.7859   -3.7784 O   0  0  0  0  0  0  0  0  0  0  0  0
   -0.2653    0.8533   -0.1093 C   0  0  0  0  0  0  0  0  0  0  0  0
   -0.2788   -0.2540    0.4022 O   0  0  0  0  0  0  0  0  0  0  0  0
   -1.3854    1.4415   -0.7099 N   0  0  0  0  0  0  0  0  0  0  0  0
   -2.6871    0.8109   -0.7979 C   0  0  0  0  0  0  0  0  0  0  0  0
   -3.1994    0.5196    0.5995 C   0  0  0  0  0  0  0  0  0  0  0  0
   -4.5166   -0.1201    0.5939 C   0  0  0  0  0  0  0  0  0  0  0  0
   -5.6388    0.6779    0.6337 C   0  0  0  0  0  0  0  0  0  0  0  0
   -6.8937    0.0648    0.6270 C   0  0  0  0  0  0  0  0  0  0  0  0
   -7.0026   -1.3097    0.5814 C   0  0  0  0  0  0  0  0  0  0  0  0
   -5.8894   -2.1162    0.5419 C   0  0  0  0  0  0  0  0  0  0  0  0
   -4.6654   -1.4836    0.5498 C   0  0  0  0  0  0  0  0  0  0  0  0
   -4.1729    0.4690    1.4720 C   0  0  0  0  0  0  0  0  0  0  0  0
   -4.4812    1.8721    0.6962 C   0  0  2  0  0  0  0  0  0  0  0  0
   -6.0687    1.5819    0.5056 C   0  0  0  0  0  0  0  0  0  0  0  0
   -6.2534    0.3941   -0.2463 N   0  0  0  0  0  0  0  0  0  0  0  0
   -6.3651    0.1776   -1.5457 N   0  0  0  0  0  0  0  0  0  0  0  0
   -6.5294   -1.1374   -1.7799 C   0  0  0  0  0  0  0  0  0  0  0  0
   -6.5179   -1.7420   -0.5888 N   0  0  0  0  0  0  0  0  0  0  0  0
   -6.3526   -0.8143    0.3123 N   0  0  0  0  0  0  0  0  0  0  0  0
   -4.0762    1.3355   -0.7103 N   0  0  0  0  0  0  0  0  0  0  0  0
   -2.7230    0.8980   -0.7567 C   0  0  0  0  0  0  0  0  0  0  0  0
   -2.2614    0.4152   -1.9174 N   0  0  0  0  0  0  0  0  0  0  0  0
   -0.9805   -0.0205   -2.0351 C   0  0  0  0  0  0  0  0  0  0  0  0
   -0.1212    0.0253   -0.9535 C   0  0  0  0  0  0  0  0  0  0  0  0
    1.1676   -0.3872   -0.9844 C   0  0  0  0  0  0  0  0  0  0  0  0
    2.0409   -0.3301    0.1499 C   0  0  0  0  0  0  0  0  0  0  0  0
    3.2644   -0.7613   -0.0121 O   0  0  0  0  0  0  0  0  0  0  0  0
    4.5663   -0.6151   -0.0371 C   0  0  0  0  0  0  0  0  0  0  0  0
    5.2038   -0.8341   -1.2945 C   0  0  0  0  0  0  0  0  0  0  0  0
    6.5437   -0.7199   -1.4761 C   0  0  0  0  0  0  0  0  0  0  0  0
    7.3596   -0.3741   -0.4029 C   0  0  0  0  0  0  0  0  0  0  0  0
    8.6961   -0.2480   -0.5403 F   0  0  0  0  0  0  0  0  0  0  0  0
    6.7429   -0.1667    0.7976 C   0  0  0  0  0  0  0  0  0  0  0  0
    5.3823   -0.2793    0.9982 C   0  0  0  0  0  0  0  0  0  0  0  0
    4.8948   -0.0585    2.2780 F   0  0  0  0  0  0  0  0  0  0  0  0
    1.4927    0.1744    1.2949 C   0  0  0  0  0  0  0  0  0  0  0  0
    2.1273    0.2888    2.3788 O   0  0  0  0  0  0  0  0  0  0  0  0
    0.2085    0.5805    1.3079 N   0  0  0  0  0  0  0  0  0  0  0  0
   -0.3155    1.1134    2.5745 C   0  0  0  0  0  0  0  0  0  0  0  0
   -0.6029    0.5230    0.2369 C   0  0  0  0  0  0  0  0  0  0  0  0
   -1.8691    0.9319    0.2784 N   0  0  0  0  0  0  0  0  0  0  0  0
  1  2  1  0
  2  3  1  0
  2  4  1  0
  4  5  1  0
  5  6  1  0
  6  7  2  0
  6  8  1  0
  8  9  1  0
  9 10  1  6
 10 11  1  0
 11 12  1  0
 11 13  2  0
  9 14  1  0
 14 15  2  0
 14 16  1  0
 16 17  1  0
 17 18  1  0
 18 19  1  0
 19 20  2  0
 20 21  1  0
 21 22  2  0
 22 23  1  0
 23 24  2  0
 26 25  1  1
 26 27  1  0
 27 28  1  0
 28 29  1  0
 29 30  2  0
 30 31  1  0
 31 32  2  0
 26 33  1  0
 33 34  1  0
 34 35  2  0
 35 36  1  0
 36 37  2  0
 37 38  1  0
 38 39  2  0
 39 40  1  0
 40 41  1  0
 41 42  2  0
 42 43  1  0
 43 44  2  0
 44 45  1  0
 44 46  1  0
 46 47  2  0
 47 48  1  0
 39 49  1  0
 49 50  2  0
 49 51  1  0
 51 52  1  0
 51 53  1  0
 53 54  2  0
 24 19  1  0
 32 28  1  0
 54 34  1  0
 53 37  1  0
 47 41  1  0
M  RAD  1  12   2
M  END

