
     RDKit          3D

 46 48  0  0  0  0  0  0  0  0999 V2000
    5.2071    1.4236    0.9504 C   0  0  0  0  0  0  0  0  0  0  0  0
    4.0441    1.0117    0.1290 C   0  0  0  0  0  0  0  0  0  0  0  0
    3.3308    2.1489   -0.4936 C   0  0  0  0  0  0  0  0  0  0  0  0
    3.1554   -0.0038    0.7675 C   0  0  0  0  0  0  0  0  0  0  0  0
    2.0333   -0.3612   -0.1027 C   0  0  0  0  0  0  0  0  0  0  0  0
    1.9633    0.2162   -1.2344 O   0  0  0  0  0  0  0  0  0  0  0  0
    1.0043   -1.2782    0.1589 N   0  0  0  0  0  0  0  0  0  0  0  0
   -0.0639   -1.4203   -1.0297 C   0  0  1  0  0  0  0  0  0  0  0  0
   -0.1938   -3.0752   -0.7831 C   0  0  0  0  0  0  0  0  0  0  0  0
   -1.3511   -1.0812   -0.1521 C   0  0  0  0  0  0  0  0  0  0  0  0
   -1.3914   -1.2306    1.0435 O   0  0  0  0  0  0  0  0  0  0  0  0
   -2.4818   -0.5845   -0.8235 N   0  0  0  0  0  0  0  0  0  0  0  0
   -3.7270   -0.2036   -0.2507 C   0  0  0  0  0  0  0  0  0  0  0  0
   -3.3377    1.0085    0.8671 C   0  0  1  0  0  0  0  0  0  0  0  0
   -3.3749    2.2231   -0.2742 C   0  0  0  0  0  0  0  0  0  0  0  0
   -4.8166    1.2065    1.2276 O   0  0  0  0  0  0  0  0  0  0  0  0
    3.7969    1.2891    1.6558 C   0  0  0  0  0  0  0  0  0  0  0  0
    4.3575   -0.0561    0.8599 C   0  0  2  0  0  0  0  0  0  0  0  0
    5.8466    0.6442    0.6034 C   0  0  0  0  0  0  0  0  0  0  0  0
    6.5823   -0.3856   -0.1214 N   0  0  0  0  0  0  0  0  0  0  0  0
    7.3309   -1.3540    0.3182 N   0  0  0  0  0  0  0  0  0  0  0  0
    7.7938   -2.0438   -0.7577 C   0  0  0  0  0  0  0  0  0  0  0  0
    7.3063   -1.4687   -1.8654 N   0  0  0  0  0  0  0  0  0  0  0  0
    6.5641   -0.4510   -1.4467 N   0  0  0  0  0  0  0  0  0  0  0  0
    3.7990    0.4026   -0.5513 N   0  0  0  0  0  0  0  0  0  0  0  0
    2.4198    0.5933   -0.6394 C   0  0  0  0  0  0  0  0  0  0  0  0
    1.9650    0.9822   -1.8439 N   0  0  0  0  0  0  0  0  0  0  0  0
    0.6564    1.2062   -2.0830 C   0  0  0  0  0  0  0  0  0  0  0  0
   -0.2089    1.0202   -1.0363 C   0  0  0  0  0  0  0  0  0  0  0  0
   -1.5639    1.2313   -1.2088 C   0  0  0  0  0  0  0  0  0  0  0  0
   -2.4513    1.0494   -0.1672 C   0  0  0  0  0  0  0  0  0  0  0  0
   -3.8270    1.2649   -0.3462 O   0  0  0  0  0  0  0  0  0  0  0  0
   -4.6658    0.1843   -0.1196 C   0  0  0  0  0  0  0  0  0  0  0  0
   -4.2044   -1.0540    0.2634 C   0  0  0  0  0  0  0  0  0  0  0  0
   -5.0539   -2.1130    0.4831 C   0  0  0  0  0  0  0  0  0  0  0  0
   -6.3964   -1.9150    0.3118 C   0  0  0  0  0  0  0  0  0  0  0  0
   -7.2596   -2.9186    0.5149 F   0  0  0  0  0  0  0  0  0  0  0  0
   -6.8667   -0.6777   -0.0718 C   0  0  0  0  0  0  0  0  0  0  0  0
   -6.0191    0.3747   -0.2898 C   0  0  0  0  0  0  0  0  0  0  0  0
   -6.4941    1.5774   -0.6642 F   0  0  0  0  0  0  0  0  0  0  0  0
   -1.9285    0.6502    1.0450 C   0  0  0  0  0  0  0  0  0  0  0  0
   -2.6992    0.4735    2.0169 O   0  0  0  0  0  0  0  0  0  0  0  0
   -0.5948    0.4464    1.2000 N   0  0  0  0  0  0  0  0  0  0  0  0
   -0.0488    0.0234    2.4881 C   0  0  0  0  0  0  0  0  0  0  0  0
    0.2652    0.6210    0.1967 C   0  0  0  0  0  0  0  0  0  0  0  0
    1.5982    0.4031    0.4031 N   0  0  0  0  0  0  0  0  0  0  0  0
  1  2  1  0
  2  3  1  0
  2  4  1  0
  4  5  1  0
  5  6  2  0
  5  7  1  0
  7  8  1  0
  8  9  1  1
  8 10  1  0
 10 11  2  0
 10 12  1  0
 12 13  1  0
 13 14  1  0
 14 15  1  6
 14 16  1  0
 18 17  1  1
 18 19  1  0
 19 20  1  0
 20 21  1  0
 21 22  2  0
 22 23  1  0
 23 24  2  0
 18 25  1  0
 25 26  1  0
 26 27  2  0
 27 28  1  0
 28 29  2  0
 29 30  1  0
 30 31  2  0
 31 32  1  0
 32 33  1  0
 33 34  2  0
 34 35  1  0
 35 36  2  0
 36 37  1  0
 36 38  1  0
 38 39  2  0
 39 40  1  0
 31 41  1  0
 41 42  2  0
 41 43  1  0
 43 44  1  0
 43 45  1  0
 45 46  2  0
 24 20  1  0
 46 26  1  0
 45 29  1  0
 39 33  1  0
M  END

