
     RDKit          3D

 47 49  0  0  0  0  0  0  0  0999 V2000
   -2.8036    2.9864   -1.2797 C   0  0  0  0  0  0  0  0  0  0  0  0
   -2.1431    2.1263   -0.2461 C   0  0  0  0  0  0  0  0  0  0  0  0
   -1.8386    2.6474    0.8502 O   0  0  0  0  0  0  0  0  0  0  0  0
   -1.8597    0.7673   -0.4703 N   0  0  0  0  0  0  0  0  0  0  0  0
   -1.1588    0.0230    0.7316 C   0  0  1  0  0  0  0  0  0  0  0  0
   -1.6951   -1.4748    0.2657 C   0  0  0  0  0  0  0  0  0  0  0  0
   -3.2128   -1.3479    0.2996 C   0  0  0  0  0  0  0  0  0  0  0  0
   -3.7287   -2.7168   -0.1194 C   0  0  0  0  0  0  0  0  0  0  0  0
   -3.6615   -0.9665    1.6945 C   0  0  0  0  0  0  0  0  0  0  0  0
    0.2685   -0.0572   -0.0152 C   0  0  0  0  0  0  0  0  0  0  0  0
    0.6076    0.9316   -0.6799 O   0  0  0  0  0  0  0  0  0  0  0  0
    1.0128   -1.2350    0.1426 N   0  0  0  0  0  0  0  0  0  0  0  0
    2.3043   -1.3101   -0.5249 C   0  0  0  0  0  0  0  0  0  0  0  0
    3.0690   -0.1300    0.0901 C   0  0  0  0  0  0  0  0  0  0  0  0
    4.4568   -0.0460   -0.5004 C   0  0  0  0  0  0  0  0  0  0  0  0
    5.1649    1.1153    0.1250 C   0  0  0  0  0  0  0  0  0  0  0  0
    5.2180   -1.3130   -0.3635 C   0  0  0  0  0  0  0  0  0  0  0  0
   -4.0958   -1.9238    2.0006 C   0  0  0  0  0  0  0  0  0  0  0  0
   -4.6787   -0.3806    1.7028 C   0  0  2  0  0  0  0  0  0  0  0  0
   -6.0502   -0.9667    0.9766 C   0  0  0  0  0  0  0  0  0  0  0  0
   -6.7764    0.2230    0.6012 N   0  0  0  0  0  0  0  0  0  0  0  0
   -6.7656    0.9482   -0.4803 N   0  0  0  0  0  0  0  0  0  0  0  0
   -7.6157    1.9801   -0.3918 C   0  0  0  0  0  0  0  0  0  0  0  0
   -8.1794    1.8698    0.8299 N   0  0  0  0  0  0  0  0  0  0  0  0
   -7.6602    0.8031    1.4144 N   0  0  0  0  0  0  0  0  0  0  0  0
   -3.8930   -0.2822    0.3293 N   0  0  0  0  0  0  0  0  0  0  0  0
   -2.4817   -0.4095    0.4996 C   0  0  0  0  0  0  0  0  0  0  0  0
   -1.8842   -0.5910    1.6791 N   0  0  0  0  0  0  0  0  0  0  0  0
   -0.5589   -0.7106    1.8396 C   0  0  0  0  0  0  0  0  0  0  0  0
    0.2702   -0.6443    0.7154 C   0  0  0  0  0  0  0  0  0  0  0  0
    1.6242   -0.7592    0.8193 C   0  0  0  0  0  0  0  0  0  0  0  0
    2.4353   -0.6849   -0.3604 C   0  0  0  0  0  0  0  0  0  0  0  0
    3.7321   -0.8165   -0.0823 O   0  0  0  0  0  0  0  0  0  0  0  0
    4.8991   -0.1785   -0.1349 C   0  0  0  0  0  0  0  0  0  0  0  0
    5.5326    0.1462    1.1204 C   0  0  0  0  0  0  0  0  0  0  0  0
    6.7132    0.7871    1.1589 C   0  0  0  0  0  0  0  0  0  0  0  0
    7.3524    1.1527   -0.0234 C   0  0  0  0  0  0  0  0  0  0  0  0
    8.5370    1.7959    0.0573 F   0  0  0  0  0  0  0  0  0  0  0  0
    6.7592    0.8484   -1.2245 C   0  0  0  0  0  0  0  0  0  0  0  0
    5.5357    0.1838   -1.2806 C   0  0  0  0  0  0  0  0  0  0  0  0
    5.0806   -0.0851   -2.5240 F   0  0  0  0  0  0  0  0  0  0  0  0
    1.7432   -0.5007   -1.5082 C   0  0  0  0  0  0  0  0  0  0  0  0
    2.3539   -0.4248   -2.5975 O   0  0  0  0  0  0  0  0  0  0  0  0
    0.3937   -0.3886   -1.5880 N   0  0  0  0  0  0  0  0  0  0  0  0
   -0.2575   -0.1915   -2.8703 C   0  0  0  0  0  0  0  0  0  0  0  0
   -0.3598   -0.4570   -0.4931 C   0  0  0  0  0  0  0  0  0  0  0  0
   -1.7054   -0.3426   -0.5954 N   0  0  0  0  0  0  0  0  0  0  0  0
  1  2  1  0
  2  3  2  0
  2  4  1  0
  4  5  1  0
  5  6  1  6
  6  7  1  0
  7  8  1  0
  7  9  1  0
  5 10  1  0
 10 11  2  0
 10 12  1  0
 12 13  1  0
 13 14  1  0
 14 15  1  0
 15 16  1  0
 15 17  1  0
 19 18  1  1
 19 20  1  0
 20 21  1  0
 21 22  1  0
 22 23  2  0
 23 24  1  0
 24 25  2  0
 19 26  1  0
 26 27  1  0
 27 28  2  0
 28 29  1  0
 29 30  2  0
 30 31  1  0
 31 32  2  0
 32 33  1  0
 33 34  1  0
 34 35  2  0
 35 36  1  0
 36 37  2  0
 37 38  1  0
 37 39  1  0
 39 40  2  0
 40 41  1  0
 32 42  1  0
 42 43  2  0
 42 44  1  0
 44 45  1  0
 44 46  1  0
 46 47  2  0
 25 21  1  0
 47 27  1  0
 46 30  1  0
 40 34  1  0
M  END

