
     RDKit          3D

 51 53  0  0  0  0  0  0  0  0999 V2000
    4.9088    2.5033    2.5697 C   0  0  0  0  0  0  0  0  0  0  0  0
    5.4028    1.3326    1.7376 C   0  0  0  0  0  0  0  0  0  0  0  0
    5.6367    0.1011    2.5805 C   0  0  0  0  0  0  0  0  0  0  0  0
    4.3712    0.9770    0.6916 C   0  0  0  0  0  0  0  0  0  0  0  0
    3.0935    0.5956    1.3748 C   0  0  0  0  0  0  0  0  0  0  0  0
    2.0793    0.2570    0.3354 C   0  0  0  0  0  0  0  0  0  0  0  0
    2.2913    0.3456   -0.8957 O   0  0  0  0  0  0  0  0  0  0  0  0
    0.8131   -0.1883    0.7721 N   0  0  0  0  0  0  0  0  0  0  0  0
   -0.2188   -0.5285   -0.3837 C   0  0  1  0  0  0  0  0  0  0  0  0
   -0.0539   -2.1765   -0.1540 C   0  0  0  0  0  0  0  0  0  0  0  0
   -0.9859   -2.7531   -1.2075 C   0  0  0  0  0  0  0  0  0  0  0  0
   -0.5758   -2.3374   -2.6008 C   0  0  0  0  0  0  0  0  0  0  0  0
   -1.2003   -4.2189   -1.0466 C   0  0  0  0  0  0  0  0  0  0  0  0
   -1.5184   -0.3516    0.5089 C   0  0  0  0  0  0  0  0  0  0  0  0
   -1.5219   -0.0709    1.6744 O   0  0  0  0  0  0  0  0  0  0  0  0
   -2.7066   -0.5574   -0.2009 N   0  0  0  0  0  0  0  0  0  0  0  0
   -4.0423   -0.4490    0.4218 C   0  0  0  0  0  0  0  0  0  0  0  0
   -4.0898    1.0033    0.9179 C   0  0  0  0  0  0  0  0  0  0  0  0
   -3.9420    1.8733   -0.2603 C   0  0  0  0  0  0  0  0  0  0  0  0
   -3.9185    3.2671   -0.2061 O   0  0  0  0  0  1  0  0  0  0  0  0
   -3.8226    1.3759   -1.4189 O   0  0  0  0  0  0  0  0  0  0  0  0
    3.8521    0.8962   -1.2715 C   0  0  0  0  0  0  0  0  0  0  0  0
    4.1638   -0.6834   -1.6471 C   0  0  1  0  0  0  0  0  0  0  0  0
    5.7909   -0.5010   -1.5333 C   0  0  0  0  0  0  0  0  0  0  0  0
    6.0074   -0.0603   -0.1797 N   0  0  0  0  0  0  0  0  0  0  0  0
    6.0373    1.1789    0.2599 N   0  0  0  0  0  0  0  0  0  0  0  0
    6.2647    1.1926    1.5855 C   0  0  0  0  0  0  0  0  0  0  0  0
    6.3752   -0.0935    1.9522 N   0  0  0  0  0  0  0  0  0  0  0  0
    6.2163   -0.8352    0.8691 N   0  0  0  0  0  0  0  0  0  0  0  0
    3.9643   -1.1915   -0.1825 N   0  0  0  0  0  0  0  0  0  0  0  0
    2.6551   -0.9153    0.2963 C   0  0  0  0  0  0  0  0  0  0  0  0
    2.2789   -1.2777    1.5514 N   0  0  0  0  0  0  0  0  0  0  0  0
    1.0582   -1.0161    1.9877 C   0  0  0  0  0  0  0  0  0  0  0  0
    0.1073   -0.3758    1.2235 C   0  0  0  0  0  0  0  0  0  0  0  0
   -1.1707   -0.0898    1.6496 C   0  0  0  0  0  0  0  0  0  0  0  0
   -2.0202    0.5640    0.7600 C   0  0  0  0  0  0  0  0  0  0  0  0
   -3.3244    0.8632    1.1766 O   0  0  0  0  0  0  0  0  0  0  0  0
   -4.3591    0.3022    0.4406 C   0  0  0  0  0  0  0  0  0  0  0  0
   -4.1606   -0.5155   -0.6492 C   0  0  0  0  0  0  0  0  0  0  0  0
   -5.2279   -1.0449   -1.3428 C   0  0  0  0  0  0  0  0  0  0  0  0
   -6.5390   -0.7933   -0.9949 C   0  0  0  0  0  0  0  0  0  0  0  0
   -7.5797   -1.3218   -1.6875 F   0  0  0  0  0  0  0  0  0  0  0  0
   -6.7354    0.0263    0.0975 C   0  0  0  0  0  0  0  0  0  0  0  0
   -5.6739    0.5592    0.7959 C   0  0  0  0  0  0  0  0  0  0  0  0
   -5.8792    1.3681    1.8740 F   0  0  0  0  0  0  0  0  0  0  0  0
   -1.6086    0.9173   -0.5037 C   0  0  0  0  0  0  0  0  0  0  0  0
   -2.4017    1.5071   -1.2814 O   0  0  0  0  0  0  0  0  0  0  0  0
   -0.3452    0.6235   -0.8970 N   0  0  0  0  0  0  0  0  0  0  0  0
    0.0352    1.0188   -2.2389 C   0  0  0  0  0  0  0  0  0  0  0  0
    0.4880   -0.0054   -0.0558 C   0  0  0  0  0  0  0  0  0  0  0  0
    1.7310   -0.2967   -0.4371 N   0  0  0  0  0  0  0  0  0  0  0  0
  1  2  1  0
  2  3  1  0
  2  4  1  0
  4  5  1  0
  5  6  1  0
  6  7  2  0
  6  8  1  0
  8  9  1  0
  9 10  1  1
 10 11  1  0
 11 12  1  0
 11 13  1  0
  9 14  1  0
 14 15  2  0
 14 16  1  0
 16 17  1  0
 17 18  1  0
 18 19  1  0
 19 20  1  0
 19 21  2  0
 23 22  1  6
 23 24  1  0
 24 25  1  0
 25 26  1  0
 26 27  2  0
 27 28  1  0
 28 29  2  0
 23 30  1  0
 30 31  1  0
 31 32  2  0
 32 33  1  0
 33 34  2  0
 34 35  1  0
 35 36  2  0
 36 37  1  0
 37 38  1  0
 38 39  2  0
 39 40  1  0
 40 41  2  0
 41 42  1  0
 41 43  1  0
 43 44  2  0
 44 45  1  0
 36 46  1  0
 46 47  2  0
 46 48  1  0
 48 49  1  0
 48 50  1  0
 50 51  2  0
 29 25  1  0
 51 31  1  0
 50 34  1  0
 44 38  1  0
M  RAD  1  20   2
M  END

