
     RDKit          3D

 51 54  0  0  0  0  0  0  0  0999 V2000
    3.7758   -1.7304    1.0367 C   0  0  0  0  0  0  0  0  0  0  0  0
    4.3437   -0.7855   -0.1792 C   0  0  2  0  0  0  0  0  0  0  0  0
    5.8495   -0.7228    0.4854 C   0  0  0  0  0  0  0  0  0  0  0  0
    6.5985    0.0995   -0.4435 N   0  0  0  0  0  0  0  0  0  0  0  0
    7.2971   -0.2298   -1.4989 N   0  0  0  0  0  0  0  0  0  0  0  0
    7.8051    0.8996   -2.0303 C   0  0  0  0  0  0  0  0  0  0  0  0
    7.4005    1.9398   -1.2727 N   0  0  0  0  0  0  0  0  0  0  0  0
    6.6678    1.4086   -0.3168 N   0  0  0  0  0  0  0  0  0  0  0  0
    3.8856    0.5460    0.4947 N   0  0  0  0  0  0  0  0  0  0  0  0
    2.4880    0.6549    0.7354 C   0  0  0  0  0  0  0  0  0  0  0  0
    1.9752    1.7543    1.3102 N   0  0  0  0  0  0  0  0  0  0  0  0
    0.6594    1.9269    1.5689 C   0  0  0  0  0  0  0  0  0  0  0  0
   -0.2253    0.9026    1.2194 C   0  0  0  0  0  0  0  0  0  0  0  0
   -1.5730    1.0472    1.4697 C   0  0  0  0  0  0  0  0  0  0  0  0
   -2.4013    0.0130    1.1078 C   0  0  0  0  0  0  0  0  0  0  0  0
   -3.7690    0.0820    1.3261 O   0  0  0  0  0  0  0  0  0  0  0  0
   -4.6787    0.0037    0.2681 C   0  0  0  0  0  0  0  0  0  0  0  0
   -4.2701   -0.1450   -1.0393 C   0  0  0  0  0  0  0  0  0  0  0  0
   -5.1847   -0.2206   -2.0736 C   0  0  0  0  0  0  0  0  0  0  0  0
   -6.5479   -0.1518   -1.8554 C   0  0  0  0  0  0  0  0  0  0  0  0
   -7.4103   -0.2300   -2.8977 F   0  0  0  0  0  0  0  0  0  0  0  0
   -6.9542   -0.0028   -0.5443 C   0  0  0  0  0  0  0  0  0  0  0  0
   -6.0361    0.0728    0.4902 C   0  0  0  0  0  0  0  0  0  0  0  0
   -6.4264    0.2205    1.7938 F   0  0  0  0  0  0  0  0  0  0  0  0
   -1.8706   -1.1045    0.5223 C   0  0  0  0  0  0  0  0  0  0  0  0
   -2.6537   -2.0565    0.1921 O   0  0  0  0  0  0  0  0  0  0  0  0
   -0.5604   -1.2031    0.2983 N   0  0  0  0  0  0  0  0  0  0  0  0
   -0.0845   -2.4352   -0.3324 C   0  0  0  0  0  0  0  0  0  0  0  0
    0.2934   -0.2268    0.6300 C   0  0  0  0  0  0  0  0  0  0  0  0
    1.6067   -0.3264    0.4051 N   0  0  0  0  0  0  0  0  0  0  0  0
    3.7513    2.9062   -0.3078 N   0  0  0  0  0  0  0  0  0  0  0  0
    3.3397    1.5576   -0.1874 C   0  0  0  0  0  0  0  0  0  0  0  0
    3.4521    0.7444   -1.1935 N   0  0  0  0  0  4  0  0  0  0  0  0
    2.8023    1.1188    1.0701 N   0  0  0  0  0  0  0  0  0  0  0  0
    2.3937   -0.2642    1.1674 C   0  0  0  0  0  0  0  0  0  0  0  0
    1.3225   -0.5549    0.1724 C   0  0  0  0  0  0  0  0  0  0  0  0
    0.0859    0.2835    0.3679 C   0  0  0  0  0  0  0  0  0  0  0  0
   -0.8584   -0.3136   -0.8830 C   0  0  2  0  0  0  0  0  0  0  0  0
   -2.0785    0.6424   -0.5652 N   0  0  0  0  0  0  0  0  0  0  0  0
   -1.8191    1.9989   -0.4138 C   0  0  0  0  0  0  0  0  0  0  0  0
   -0.6248    2.3405   -0.5439 O   0  0  0  0  0  0  0  0  0  0  0  0
   -2.8898    2.9707   -0.1194 C   0  0  0  0  0  0  0  0  0  0  0  0
   -2.3856    4.3737    0.0043 C   0  0  0  0  0  0  0  0  0  0  0  0
   -1.4500    4.4438    1.0453 O   0  0  0  0  0  0  0  0  0  0  0  0
   -1.4019   -1.5531   -0.0198 C   0  0  0  0  0  0  0  0  0  0  0  0
   -2.4006   -1.4358    0.6811 O   0  0  0  0  0  0  0  0  0  0  0  0
   -0.6756   -2.7650   -0.1150 N   0  0  0  0  0  0  0  0  0  0  0  0
    0.4815   -2.9785   -0.9362 C   0  0  0  0  0  0  0  0  0  0  0  0
    0.5287   -4.4751   -1.1712 C   0  0  0  0  0  0  0  0  0  0  0  0
   -0.5587   -5.0714   -0.3007 C   0  0  0  0  0  0  0  0  0  0  0  0
   -1.0146   -3.9688    0.6182 C   0  0  0  0  0  0  0  0  0  0  0  0
  2  1  1  1
  2  3  1  0
  3  4  1  0
  4  5  1  0
  5  6  2  0
  6  7  1  0
  7  8  2  0
  2  9  1  0
  9 10  1  0
 10 11  2  0
 11 12  1  0
 12 13  2  0
 13 14  1  0
 14 15  2  0
 15 16  1  0
 16 17  1  0
 17 18  2  0
 18 19  1  0
 19 20  2  0
 20 21  1  0
 20 22  1  0
 22 23  2  0
 23 24  1  0
 15 25  1  0
 25 26  2  0
 25 27  1  0
 27 28  1  0
 27 29  1  0
 29 30  2  0
 31 32  1  0
 32 33  2  0
 32 34  1  0
 34 35  1  0
 35 36  1  0
 36 37  1  0
 38 37  1  1
 38 39  1  0
 39 40  1  0
 40 41  2  0
 40 42  1  0
 42 43  1  0
 43 44  1  0
 38 45  1  0
 45 46  2  0
 45 47  1  0
 47 48  1  0
 48 49  1  0
 49 50  1  0
 50 51  1  0
  8  4  1  0
 30 10  1  0
 51 47  1  0
 29 13  1  0
 23 17  1  0
M  CHG  1  33   1
M  END

