
     RDKit          3D

 56 59  0  0  0  0  0  0  0  0999 V2000
   -6.4302    0.3272    0.8638 C   0  0  0  0  0  0  0  0  0  0  0  0
   -4.8349    0.6167    1.0184 C   0  0  2  0  0  0  0  0  0  0  0  0
   -4.7292    1.8295   -0.0509 C   0  0  0  0  0  0  0  0  0  0  0  0
   -5.1112    1.4618   -1.3315 N   0  0  0  0  0  0  0  0  0  0  0  0
   -4.3718    0.9706   -2.3105 N   0  0  0  0  0  0  0  0  0  0  0  0
   -5.1555    0.7640   -3.3633 C   0  0  0  0  0  0  0  0  0  0  0  0
   -6.3846    1.1256   -3.0432 N   0  0  0  0  0  0  0  0  0  0  0  0
   -6.3655    1.5519   -1.8065 N   0  0  0  0  0  0  0  0  0  0  0  0
   -4.4173   -0.4775   -0.0117 N   0  0  0  0  0  0  0  0  0  0  0  0
   -2.9970   -0.5823   -0.2058 C   0  0  0  0  0  0  0  0  0  0  0  0
   -2.5327   -1.4944   -1.0725 N   0  0  0  0  0  0  0  0  0  0  0  0
   -1.1898   -1.6223   -1.2823 C   0  0  0  0  0  0  0  0  0  0  0  0
   -0.2805   -0.8255   -0.6161 C   0  0  0  0  0  0  0  0  0  0  0  0
    1.0601   -0.9515   -0.8229 C   0  0  0  0  0  0  0  0  0  0  0  0
    1.9971   -0.1144   -0.1206 C   0  0  0  0  0  0  0  0  0  0  0  0
    3.2645   -0.2898   -0.3685 O   0  0  0  0  0  0  0  0  0  0  0  0
    4.4828   -0.6132    0.0020 C   0  0  0  0  0  0  0  0  0  0  0  0
    5.0460   -1.7629   -0.6468 C   0  0  0  0  0  0  0  0  0  0  0  0
    6.2848   -2.2319   -0.3853 C   0  0  0  0  0  0  0  0  0  0  0  0
    7.0698   -1.6080    0.5356 C   0  0  0  0  0  0  0  0  0  0  0  0
    8.3186   -2.0040    0.8644 F   0  0  0  0  0  0  0  0  0  0  0  0
    6.5849   -0.5135    1.1792 C   0  0  0  0  0  0  0  0  0  0  0  0
    5.3028   -0.0318    0.9049 C   0  0  0  0  0  0  0  0  0  0  0  0
    4.9063    1.0738    1.5758 F   0  0  0  0  0  0  0  0  0  0  0  0
    1.4567    0.7941    0.7464 C   0  0  0  0  0  0  0  0  0  0  0  0
    2.1807    1.6035    1.4335 O   0  0  0  0  0  0  0  0  0  0  0  0
    0.1084    0.8634    0.9025 N   0  0  0  0  0  0  0  0  0  0  0  0
   -0.3741    1.8583    1.8456 C   0  0  0  0  0  0  0  0  0  0  0  0
   -0.7800    0.0998    0.2652 C   0  0  0  0  0  0  0  0  0  0  0  0
   -2.1092    0.1826    0.4328 N   0  0  0  0  0  0  0  0  0  0  0  0
   -3.2288    4.3185    1.0169 N   0  0  0  0  0  0  0  0  0  0  0  0
   -1.9111    3.7081    0.9265 C   0  0  0  0  0  0  0  0  0  0  0  0
   -1.5847    2.7530    1.7042 N   0  0  0  0  0  4  0  0  0  0  0  0
   -0.9879    4.1672   -0.0187 N   0  0  0  0  0  0  0  0  0  0  0  0
    0.3052    3.7464   -0.2869 C   0  0  0  0  0  0  0  0  0  0  0  0
    0.5710    2.3894   -0.7839 C   0  0  0  0  0  0  0  0  0  0  0  0
    0.1116    1.3410    0.1783 C   0  0  0  0  0  0  0  0  0  0  0  0
    0.5362   -0.0396   -0.6323 C   0  0  2  0  0  0  0  0  0  0  0  0
   -0.0108   -0.9695    0.4934 N   0  0  0  0  0  0  0  0  0  0  0  0
   -1.4463   -1.0618    0.5286 C   0  0  0  0  0  0  0  0  0  0  0  0
   -2.0964   -0.4100   -0.3174 O   0  0  0  0  0  0  0  0  0  0  0  0
   -2.1513   -1.8963    1.5262 C   0  0  0  0  0  0  0  0  0  0  0  0
   -3.6159   -1.9741    1.3931 C   0  0  0  0  0  0  0  0  0  0  0  0
   -3.9184   -2.5888    0.0555 C   0  0  0  0  0  0  0  0  0  0  0  0
   -4.0485   -3.9041   -0.2548 C   0  0  0  0  0  0  0  0  0  0  0  0
   -4.3345   -3.9907   -1.5567 N   0  0  0  0  0  0  0  0  0  0  0  0
   -4.3778   -2.7368   -2.0323 C   0  0  0  0  0  0  0  0  0  0  0  0
   -4.1230   -1.8678   -1.0480 N   0  0  0  0  0  0  0  0  0  0  0  0
    2.0461    0.0466   -0.1306 C   0  0  0  0  0  0  0  0  0  0  0  0
    2.4494   -0.5188    0.8635 O   0  0  0  0  0  0  0  0  0  0  0  0
    2.9069    0.8450   -0.9403 N   0  0  0  0  0  0  0  0  0  0  0  0
    4.2912    0.9263   -0.4825 C   0  0  0  0  0  0  0  0  0  0  0  0
    4.7995   -0.5047   -0.4835 C   0  0  0  0  0  0  0  0  0  0  0  0
    6.1895   -0.5383   -0.0353 C   0  0  0  0  0  0  0  0  0  0  0  0
    6.8407   -1.7590    0.0388 O   0  0  0  0  0  1  0  0  0  0  0  0
    6.7881    0.5188    0.2786 O   0  0  0  0  0  0  0  0  0  0  0  0
  2  1  1  6
  2  3  1  0
  3  4  1  0
  4  5  1  0
  5  6  2  0
  6  7  1  0
  7  8  2  0
  2  9  1  0
  9 10  1  0
 10 11  2  0
 11 12  1  0
 12 13  2  0
 13 14  1  0
 14 15  2  0
 15 16  1  0
 16 17  1  0
 17 18  2  0
 18 19  1  0
 19 20  2  0
 20 21  1  0
 20 22  1  0
 22 23  2  0
 23 24  1  0
 15 25  1  0
 25 26  2  0
 25 27  1  0
 27 28  1  0
 27 29  1  0
 29 30  2  0
 31 32  1  0
 32 33  2  0
 32 34  1  0
 34 35  1  0
 35 36  1  0
 36 37  1  0
 38 37  1  1
 38 39  1  0
 39 40  1  0
 40 41  2  0
 40 42  1  0
 42 43  1  0
 43 44  1  0
 44 45  2  0
 45 46  1  0
 46 47  1  0
 47 48  2  0
 38 49  1  0
 49 50  2  0
 49 51  1  0
 51 52  1  0
 52 53  1  0
 53 54  1  0
 54 55  1  0
 54 56  2  0
  8  4  1  0
 30 10  1  0
 48 44  1  0
 29 13  1  0
 23 17  1  0
M  CHG  1  33   1
M  RAD  1  55   2
M  END

