
     RDKit          3D

 55 57  0  0  0  0  0  0  0  0999 V2000
   -0.5221   -5.0086    2.0221 C   0  0  0  0  0  0  0  0  0  0  0  0
   -0.5036   -3.9048    0.9275 C   0  0  0  0  0  0  0  0  0  0  0  0
   -1.8802   -4.0528    0.1483 C   0  0  2  0  0  0  0  0  0  0  0  0
   -1.6232   -5.6267   -0.3796 C   0  0  0  0  0  0  0  0  0  0  0  0
   -1.5964   -3.3901   -1.2506 C   0  0  0  0  0  0  0  0  0  0  0  0
   -1.2259   -2.0049   -1.1545 N   0  0  0  0  0  0  0  0  0  0  0  0
   -1.9392   -1.1369   -0.3394 C   0  0  0  0  0  0  0  0  0  0  0  0
   -2.8745   -1.6107    0.3623 O   0  0  0  0  0  0  0  0  0  0  0  0
   -1.7009    0.3849   -0.2040 C   0  0  2  0  0  0  0  0  0  0  0  0
   -0.8494    0.7772   -1.5032 C   0  0  0  0  0  0  0  0  0  0  0  0
   -0.9133    2.3795   -1.2599 C   0  0  0  0  0  0  0  0  0  0  0  0
   -2.3854    2.7081   -1.4617 C   0  0  0  0  0  0  0  0  0  0  0  0
   -2.9088    3.9676   -1.2778 N   0  0  0  0  0  0  0  0  0  0  0  0
   -3.0648    4.6289    0.0111 C   0  0  0  0  0  0  0  0  0  0  0  0
   -3.6626    5.8945    0.0754 N   0  0  0  0  0  0  0  0  0  0  0  0
   -2.6803    3.9698    1.0204 N   0  0  0  0  0  4  0  0  0  0  0  0
   -0.5112    0.1973    0.8847 N   0  0  0  0  0  0  0  0  0  0  0  0
    0.7510    0.1046    0.3503 C   0  0  0  0  0  0  0  0  0  0  0  0
    0.7760    0.2262   -0.9372 O   0  0  0  0  0  0  0  0  0  0  0  0
    2.0648   -0.1052    1.0587 C   0  0  0  0  0  0  0  0  0  0  0  0
    3.0916   -0.1789    0.0253 C   0  0  0  0  0  0  0  0  0  0  0  0
    4.4021   -0.3981    0.0413 C   0  0  0  0  0  0  0  0  0  0  0  0
    5.6900   -0.1469    0.4229 C   0  0  0  0  0  0  0  0  0  0  0  0
    6.3374    1.1470    0.0739 C   0  0  0  0  0  0  0  0  0  0  0  0
    7.7288    1.1790    0.5493 N   0  0  0  0  0  4  0  0  0  0  0  0
    3.6352   -1.9049   -2.3232 C   0  0  0  0  0  0  0  0  0  0  0  0
    4.5672   -0.6720   -1.7138 C   0  0  2  0  0  0  0  0  0  0  0  0
    4.0402   -0.9290   -0.1600 C   0  0  0  0  0  0  0  0  0  0  0  0
    4.7923    0.1162    0.5485 N   0  0  0  0  0  0  0  0  0  0  0  0
    4.3913    1.3481    0.7641 N   0  0  0  0  0  0  0  0  0  0  0  0
    5.3435    2.0117    1.4423 C   0  0  0  0  0  0  0  0  0  0  0  0
    6.3524    1.1679    1.6481 N   0  0  0  0  0  0  0  0  0  0  0  0
    5.9950    0.0208    1.0957 N   0  0  0  0  0  0  0  0  0  0  0  0
    3.5073    0.4314   -2.0988 N   0  0  0  0  0  0  0  0  0  0  0  0
    2.2287    0.3771   -1.5946 C   0  0  0  0  0  0  0  0  0  0  0  0
    1.3233    1.3074   -1.9141 N   0  0  0  0  0  0  0  0  0  0  0  0
    0.0713    1.2571   -1.4235 C   0  0  0  0  0  0  0  0  0  0  0  0
   -0.3218    0.2320   -0.5654 C   0  0  0  0  0  0  0  0  0  0  0  0
   -1.5760    0.1336   -0.0405 C   0  0  0  0  0  0  0  0  0  0  0  0
   -1.9163   -0.9091    0.8106 C   0  0  0  0  0  0  0  0  0  0  0  0
   -3.1962   -1.0111    1.3473 O   0  0  0  0  0  0  0  0  0  0  0  0
   -4.1295   -0.0561    1.0206 C   0  0  0  0  0  0  0  0  0  0  0  0
   -4.7257    0.7319    1.9993 C   0  0  0  0  0  0  0  0  0  0  0  0
   -5.6600    1.6782    1.6068 C   0  0  0  0  0  0  0  0  0  0  0  0
   -6.0045    1.8502    0.2807 C   0  0  0  0  0  0  0  0  0  0  0  0
   -6.9151    2.7764   -0.0765 F   0  0  0  0  0  0  0  0  0  0  0  0
   -5.3876    1.0466   -0.6550 C   0  0  0  0  0  0  0  0  0  0  0  0
   -4.4522    0.0914   -0.3140 C   0  0  0  0  0  0  0  0  0  0  0  0
   -3.8695   -0.6776   -1.2628 F   0  0  0  0  0  0  0  0  0  0  0  0
   -0.9282   -1.8373    1.0986 C   0  0  0  0  0  0  0  0  0  0  0  0
   -1.2441   -2.7739    1.8668 O   0  0  0  0  0  0  0  0  0  0  0  0
    0.3024   -1.7478    0.5885 N   0  0  0  0  0  0  0  0  0  0  0  0
    1.3094   -2.7264    0.9048 C   0  0  0  0  0  0  0  0  0  0  0  0
    0.6245   -0.7249   -0.2422 C   0  0  0  0  0  0  0  0  0  0  0  0
    1.8427   -0.6080   -0.7670 N   0  0  0  0  0  0  0  0  0  0  0  0
  1  2  1  0
  2  3  1  0
  3  4  1  6
  3  5  1  0
  5  6  1  0
  6  7  1  0
  7  8  2  0
  7  9  1  0
  9 10  1  6
 10 11  1  0
 11 12  1  0
 12 13  1  0
 13 14  1  0
 14 15  1  0
 14 16  2  0
  9 17  1  0
 17 18  1  0
 18 19  2  0
 18 20  1  0
 20 21  1  0
 21 22  1  0
 22 23  1  0
 23 24  1  0
 24 25  1  0
 27 26  1  6
 27 28  1  0
 28 29  1  0
 29 30  1  0
 30 31  2  0
 31 32  1  0
 32 33  2  0
 27 34  1  0
 34 35  1  0
 35 36  2  0
 36 37  1  0
 37 38  2  0
 38 39  1  0
 39 40  2  0
 40 41  1  0
 41 42  1  0
 42 43  2  0
 43 44  1  0
 44 45  2  0
 45 46  1  0
 45 47  1  0
 47 48  2  0
 48 49  1  0
 40 50  1  0
 50 51  2  0
 50 52  1  0
 52 53  1  0
 52 54  1  0
 54 55  2  0
 33 29  1  0
 55 35  1  0
 54 38  1  0
 48 42  1  0
M  CHG  2  16   1  25   1
M  END

