
     RDKit          3D

 47 50  0  0  0  0  0  0  0  0999 V2000
    4.3828    2.3763    1.0597 C   0  0  0  0  0  0  0  0  0  0  0  0
    3.4306    1.2856    1.4464 C   0  0  0  0  0  0  0  0  0  0  0  0
    2.3005    1.2317    0.4639 C   0  0  0  0  0  0  0  0  0  0  0  0
    2.2797    2.0428   -0.4983 O   0  0  0  0  0  0  0  0  0  0  0  0
    1.3032    0.2549    0.6777 N   0  0  0  0  0  0  0  0  0  0  0  0
    0.1327    0.2424   -0.3884 C   0  0  1  0  0  0  0  0  0  0  0  0
    0.0651   -1.4021   -0.6042 C   0  0  0  0  0  0  0  0  0  0  0  0
    1.3305   -1.8575   -1.0800 C   0  0  0  0  0  0  0  0  0  0  0  0
    1.5935   -3.1744   -1.3562 O   0  0  0  0  0  1  0  0  0  0  0  0
    2.2688   -1.0180   -1.2635 O   0  0  0  0  0  0  0  0  0  0  0  0
   -1.0638    0.2707    0.6986 C   0  0  0  0  0  0  0  0  0  0  0  0
   -0.7847    0.3216    1.9029 O   0  0  0  0  0  0  0  0  0  0  0  0
   -2.3568    0.2337    0.1716 N   0  0  0  0  0  0  0  0  0  0  0  0
   -3.5696    0.2613    0.9474 C   0  0  0  0  0  0  0  0  0  0  0  0
   -4.4338   -0.7702    0.2444 C   0  0  0  0  0  0  0  0  0  0  0  0
   -4.1423   -0.4524   -1.2159 C   0  0  0  0  0  0  0  0  0  0  0  0
   -2.7363    0.1536   -1.2061 C   0  0  0  0  0  0  0  0  0  0  0  0
    3.7292    2.2378    0.6483 C   0  0  0  0  0  0  0  0  0  0  0  0
    4.5258    0.7743    0.4942 C   0  0  2  0  0  0  0  0  0  0  0  0
    5.6845    1.4592   -0.5099 C   0  0  0  0  0  0  0  0  0  0  0  0
    6.4956    0.2973   -0.7577 N   0  0  0  0  0  0  0  0  0  0  0  0
    6.3087   -0.5463   -1.7520 N   0  0  0  0  0  0  0  0  0  0  0  0
    7.2665   -1.4920   -1.6414 C   0  0  0  0  0  0  0  0  0  0  0  0
    8.0208   -1.1983   -0.5719 N   0  0  0  0  0  0  0  0  0  0  0  0
    7.5227   -0.0857   -0.0420 N   0  0  0  0  0  0  0  0  0  0  0  0
    3.6294    0.3294   -0.7339 N   0  0  0  0  0  0  0  0  0  0  0  0
    2.2287    0.2568   -0.4194 C   0  0  0  0  0  0  0  0  0  0  0  0
    1.7618    0.5449    0.8061 N   0  0  0  0  0  0  0  0  0  0  0  0
    0.4722    0.4967    1.1624 C   0  0  0  0  0  0  0  0  0  0  0  0
   -0.4481    0.1250    0.2063 C   0  0  0  0  0  0  0  0  0  0  0  0
   -1.8042    0.0362    0.4445 C   0  0  0  0  0  0  0  0  0  0  0  0
   -2.6838   -0.3415   -0.5500 C   0  0  0  0  0  0  0  0  0  0  0  0
   -4.0545   -0.4438   -0.3544 O   0  0  0  0  0  0  0  0  0  0  0  0
   -4.5580   -0.1521    0.8983 C   0  0  0  0  0  0  0  0  0  0  0  0
   -3.7835    0.2335    1.9639 C   0  0  0  0  0  0  0  0  0  0  0  0
   -4.3589    0.5072    3.1819 C   0  0  0  0  0  0  0  0  0  0  0  0
   -5.7170    0.4099    3.3897 C   0  0  0  0  0  0  0  0  0  0  0  0
   -6.2871    0.6814    4.5977 F   0  0  0  0  0  0  0  0  0  0  0  0
   -6.5157    0.0217    2.3250 C   0  0  0  0  0  0  0  0  0  0  0  0
   -5.9230   -0.2488    1.1116 C   0  0  0  0  0  0  0  0  0  0  0  0
   -6.7060   -0.6309    0.0623 F   0  0  0  0  0  0  0  0  0  0  0  0
   -2.1428   -0.6273   -1.7976 C   0  0  0  0  0  0  0  0  0  0  0  0
   -2.9198   -0.9684   -2.7028 O   0  0  0  0  0  0  0  0  0  0  0  0
   -0.8222   -0.5439   -2.0403 N   0  0  0  0  0  0  0  0  0  0  0  0
   -0.2963   -0.8535   -3.3671 C   0  0  0  0  0  0  0  0  0  0  0  0
    0.0344   -0.1752   -1.0689 C   0  0  0  0  0  0  0  0  0  0  0  0
    1.3404   -0.1036   -1.3479 N   0  0  0  0  0  0  0  0  0  0  0  0
  1  2  1  0
  2  3  1  0
  3  4  2  0
  3  5  1  0
  5  6  1  0
  6  7  1  1
  7  8  1  0
  8  9  1  0
  8 10  2  0
  6 11  1  0
 11 12  2  0
 11 13  1  0
 13 14  1  0
 14 15  1  0
 15 16  1  0
 16 17  1  0
 19 18  1  1
 19 20  1  0
 20 21  1  0
 21 22  1  0
 22 23  2  0
 23 24  1  0
 24 25  2  0
 19 26  1  0
 26 27  1  0
 27 28  2  0
 28 29  1  0
 29 30  2  0
 30 31  1  0
 31 32  2  0
 32 33  1  0
 33 34  1  0
 34 35  2  0
 35 36  1  0
 36 37  2  0
 37 38  1  0
 37 39  1  0
 39 40  2  0
 40 41  1  0
 32 42  1  0
 42 43  2  0
 42 44  1  0
 44 45  1  0
 44 46  1  0
 46 47  2  0
 17 13  1  0
 25 21  1  0
 47 27  1  0
 46 30  1  0
 40 34  1  0
M  RAD  1   9   2
M  END

