
     RDKit          3D

 52 54  0  0  0  0  0  0  0  0999 V2000
    6.0785    0.3023    2.8237 C   0  0  0  0  0  0  0  0  0  0  0  0
    4.6244   -0.4822    2.7872 C   0  0  2  0  0  0  0  0  0  0  0  0
    5.1000   -1.6195    1.6998 C   0  0  0  0  0  0  0  0  0  0  0  0
    5.5000   -0.9714    0.5079 N   0  0  0  0  0  0  0  0  0  0  0  0
    6.7670   -0.5744    0.2971 N   0  0  0  0  0  0  0  0  0  0  0  0
    6.8815    0.0046   -0.8911 C   0  0  0  0  0  0  0  0  0  0  0  0
    5.6416   -0.0343   -1.4373 N   0  0  0  0  0  0  0  0  0  0  0  0
    4.8124   -0.6273   -0.5821 N   0  0  0  0  0  0  0  0  0  0  0  0
    4.0008    0.4755    1.7159 N   0  0  0  0  0  0  0  0  0  0  0  0
    2.6651    0.0629    1.4310 C   0  0  0  0  0  0  0  0  0  0  0  0
    2.0710   -0.9906    2.0138 N   0  0  0  0  0  0  0  0  0  0  0  0
    0.7954   -1.3513    1.7146 C   0  0  0  0  0  0  0  0  0  0  0  0
    0.0573   -0.6431    0.7937 C   0  0  0  0  0  0  0  0  0  0  0  0
   -1.2181   -0.9219    0.4281 C   0  0  0  0  0  0  0  0  0  0  0  0
   -1.9527   -0.1528   -0.5406 C   0  0  0  0  0  0  0  0  0  0  0  0
   -3.1894   -0.5054   -0.8299 O   0  0  0  0  0  0  0  0  0  0  0  0
   -4.4748   -0.2690   -0.8618 C   0  0  0  0  0  0  0  0  0  0  0  0
   -5.2912   -1.1490   -0.0791 C   0  0  0  0  0  0  0  0  0  0  0  0
   -6.6463   -1.0348   -0.0072 C   0  0  0  0  0  0  0  0  0  0  0  0
   -7.3078   -0.0417   -0.7026 C   0  0  0  0  0  0  0  0  0  0  0  0
   -8.6366    0.1274   -0.6739 F   0  0  0  0  0  0  0  0  0  0  0  0
   -6.5663    0.8248   -1.4668 C   0  0  0  0  0  0  0  0  0  0  0  0
   -5.1761    0.6970   -1.5327 C   0  0  0  0  0  0  0  0  0  0  0  0
   -4.5900    1.6110   -2.3389 F   0  0  0  0  0  0  0  0  0  0  0  0
   -1.2981    0.9093   -1.1036 C   0  0  0  0  0  0  0  0  0  0  0  0
   -1.8217    1.6847   -1.9836 O   0  0  0  0  0  0  0  0  0  0  0  0
   -0.0331    1.1681   -0.7261 N   0  0  0  0  0  0  0  0  0  0  0  0
    0.6351    2.3119   -1.3485 C   0  0  0  0  0  0  0  0  0  0  0  0
    0.6554    0.4415    0.1873 C   0  0  0  0  0  0  0  0  0  0  0  0
    1.9167    0.7476    0.5243 N   0  0  0  0  0  0  0  0  0  0  0  0
    4.9614   -3.6182    0.6622 N   0  0  0  0  0  0  0  0  0  0  0  0
    4.1957   -2.6513   -0.0379 C   0  0  0  0  0  0  0  0  0  0  0  0
    4.3595   -1.4357    0.2022 O   0  0  0  0  0  0  0  0  0  0  0  0
    3.2044   -3.0526   -1.0498 C   0  0  0  0  0  0  0  0  0  0  0  0
    2.4786   -1.8211   -1.5087 C   0  0  0  0  0  0  0  0  0  0  0  0
    1.7604   -1.1446   -0.4270 C   0  0  0  0  0  0  0  0  0  0  0  0
    1.8206   -1.7101    0.7052 O   0  0  0  0  0  0  0  0  0  0  0  0
    1.0345    0.0500   -0.5587 N   0  0  0  0  0  0  0  0  0  0  0  0
    0.3525    0.5801    0.7349 C   0  0  1  0  0  0  0  0  0  0  0  0
   -0.0664    2.0217    0.0879 C   0  0  0  0  0  0  0  0  0  0  0  0
    1.2367    2.6623   -0.3215 C   0  0  0  0  0  0  0  0  0  0  0  0
    1.0680    3.9721   -0.9314 C   0  0  0  0  0  0  0  0  0  0  0  0
    2.1769    4.6790   -1.3555 O   0  0  0  0  0  1  0  0  0  0  0  0
   -0.0574    4.5164   -1.1009 O   0  0  0  0  0  0  0  0  0  0  0  0
   -1.0645   -0.0936    0.4677 C   0  0  0  0  0  0  0  0  0  0  0  0
   -1.3029   -0.7680   -0.5157 O   0  0  0  0  0  0  0  0  0  0  0  0
   -2.0389    0.1589    1.4826 N   0  0  0  0  0  0  0  0  0  0  0  0
   -3.3584   -0.4482    1.2602 C   0  0  0  0  0  0  0  0  0  0  0  0
   -3.8942    0.1234   -0.0597 C   0  0  0  0  0  0  0  0  0  0  0  0
   -5.2187   -0.5218   -0.2264 C   0  0  0  0  0  0  0  0  0  0  0  0
   -6.3538    0.1826    0.0973 O   0  0  0  0  0  1  0  0  0  0  0  0
   -5.2940   -1.6815   -0.6532 O   0  0  0  0  0  0  0  0  0  0  0  0
  2  1  1  6
  2  3  1  0
  3  4  1  0
  4  5  1  0
  5  6  2  0
  6  7  1  0
  7  8  2  0
  2  9  1  0
  9 10  1  0
 10 11  2  0
 11 12  1  0
 12 13  2  0
 13 14  1  0
 14 15  2  0
 15 16  1  0
 16 17  1  0
 17 18  2  0
 18 19  1  0
 19 20  2  0
 20 21  1  0
 20 22  1  0
 22 23  2  0
 23 24  1  0
 15 25  1  0
 25 26  2  0
 25 27  1  0
 27 28  1  0
 27 29  1  0
 29 30  2  0
 31 32  1  0
 32 33  2  0
 32 34  1  0
 34 35  1  0
 35 36  1  0
 36 37  2  0
 36 38  1  0
 38 39  1  0
 39 40  1  6
 40 41  1  0
 41 42  1  0
 42 43  1  0
 42 44  2  0
 39 45  1  0
 45 46  2  0
 45 47  1  0
 47 48  1  0
 48 49  1  0
 49 50  1  0
 50 51  1  0
 50 52  2  0
  8  4  1  0
 30 10  1  0
 29 13  1  0
 23 17  1  0
M  RAD  2  43   2  51   2
M  END

