
     RDKit          3D

 50 53  0  0  0  0  0  0  0  0999 V2000
    2.7466   -0.0704   -3.0698 C   0  0  0  0  0  0  0  0  0  0  0  0
    3.6639   -0.5514   -2.0332 C   0  0  0  0  0  0  0  0  0  0  0  0
    4.8435    0.2946   -1.7333 C   0  0  0  0  0  0  0  0  0  0  0  0
    3.2002   -1.4698   -1.0234 C   0  0  0  0  0  0  0  0  0  0  0  0
    2.1108   -1.0163   -0.1745 N   0  0  0  0  0  0  0  0  0  0  0  0
    2.2979    0.1110    0.5921 C   0  0  0  0  0  0  0  0  0  0  0  0
    3.3767    0.7369    0.5653 O   0  0  0  0  0  0  0  0  0  0  0  0
    1.1733    0.6923    1.5537 C   0  0  2  0  0  0  0  0  0  0  0  0
    1.7325   -0.0760    2.8901 C   0  0  0  0  0  0  0  0  0  0  0  0
    1.7680   -1.5012    2.4029 C   0  0  0  0  0  0  0  0  0  0  0  0
    0.6239   -1.6576    1.4500 C   0  0  0  0  0  0  0  0  0  0  0  0
    0.0748   -0.3652    1.2989 N   0  0  0  0  0  0  0  0  0  0  0  0
   -1.2624   -0.0389    0.9678 C   0  0  0  0  0  0  0  0  0  0  0  0
   -2.1218   -0.9367    0.7694 O   0  0  0  0  0  0  0  0  0  0  0  0
   -1.7356    1.3703    0.8339 C   0  0  0  0  0  0  0  0  0  0  0  0
   -3.1796    1.4215    0.4808 C   0  0  0  0  0  0  0  0  0  0  0  0
   -3.4197    0.7138   -0.8354 C   0  0  0  0  0  0  0  0  0  0  0  0
   -4.8614    0.7814   -1.1591 C   0  0  0  0  0  0  0  0  0  0  0  0
   -5.3489    0.2045   -2.3217 O   0  0  0  0  0  1  0  0  0  0  0  0
   -5.6828    1.3574   -0.3996 O   0  0  0  0  0  0  0  0  0  0  0  0
    6.2600   -0.1727    1.5300 C   0  0  0  0  0  0  0  0  0  0  0  0
    4.7856   -0.8838    1.2697 C   0  0  2  0  0  0  0  0  0  0  0  0
    5.0313   -1.0292   -0.3559 C   0  0  0  0  0  0  0  0  0  0  0  0
    5.2323    0.2605   -0.9029 N   0  0  0  0  0  0  0  0  0  0  0  0
    6.3264    0.9754   -1.0882 N   0  0  0  0  0  0  0  0  0  0  0  0
    6.0451    2.1587   -1.6459 C   0  0  0  0  0  0  0  0  0  0  0  0
    4.7165    2.1840   -1.8165 N   0  0  0  0  0  0  0  0  0  0  0  0
    4.2615    1.0335   -1.3616 N   0  0  0  0  0  0  0  0  0  0  0  0
    4.0185    0.4966    1.1880 N   0  0  0  0  0  0  0  0  0  0  0  0
    2.6245    0.3716    0.9587 C   0  0  0  0  0  0  0  0  0  0  0  0
    1.8651    1.4710    0.8696 N   0  0  0  0  0  0  0  0  0  0  0  0
    0.5384    1.4351    0.6540 C   0  0  0  0  0  0  0  0  0  0  0  0
   -0.0975    0.2029    0.5133 C   0  0  0  0  0  0  0  0  0  0  0  0
   -1.4527    0.1114    0.2914 C   0  0  0  0  0  0  0  0  0  0  0  0
   -2.0286   -1.1258    0.1603 C   0  0  0  0  0  0  0  0  0  0  0  0
   -3.3493   -1.3623   -0.0605 O   0  0  0  0  0  0  0  0  0  0  0  0
   -4.3388   -0.3985   -0.1910 C   0  0  0  0  0  0  0  0  0  0  0  0
   -4.1114    0.9609   -0.1125 C   0  0  0  0  0  0  0  0  0  0  0  0
   -5.1396    1.8754   -0.2507 C   0  0  0  0  0  0  0  0  0  0  0  0
   -6.4424    1.4847   -0.4733 C   0  0  0  0  0  0  0  0  0  0  0  0
   -7.4588    2.3782   -0.6102 F   0  0  0  0  0  0  0  0  0  0  0  0
   -6.6732    0.1270   -0.5523 C   0  0  0  0  0  0  0  0  0  0  0  0
   -5.6444   -0.7887   -0.4140 C   0  0  0  0  0  0  0  0  0  0  0  0
   -5.9198   -2.1061   -0.4990 F   0  0  0  0  0  0  0  0  0  0  0  0
   -1.1929   -2.2167    0.2620 C   0  0  0  0  0  0  0  0  0  0  0  0
   -1.6585   -3.3964    0.1505 O   0  0  0  0  0  0  0  0  0  0  0  0
    0.1260   -2.1354    0.4778 N   0  0  0  0  0  0  0  0  0  0  0  0
    0.9859   -3.3018    0.5811 C   0  0  0  0  0  0  0  0  0  0  0  0
    0.6804   -0.9074    0.6051 C   0  0  0  0  0  0  0  0  0  0  0  0
    2.0105   -0.8069    0.8233 N   0  0  0  0  0  0  0  0  0  0  0  0
  1  2  1  0
  2  3  1  0
  2  4  1  0
  4  5  1  0
  5  6  1  0
  6  7  2  0
  8  6  1  6
  8  9  1  0
  9 10  1  0
 10 11  1  0
 11 12  1  0
 12 13  1  0
 13 14  2  0
 13 15  1  0
 15 16  1  0
 16 17  1  0
 17 18  1  0
 18 19  1  0
 18 20  2  0
 22 21  1  1
 22 23  1  0
 23 24  1  0
 24 25  1  0
 25 26  2  0
 26 27  1  0
 27 28  2  0
 22 29  1  0
 29 30  1  0
 30 31  2  0
 31 32  1  0
 32 33  2  0
 33 34  1  0
 34 35  2  0
 35 36  1  0
 36 37  1  0
 37 38  2  0
 38 39  1  0
 39 40  2  0
 40 41  1  0
 40 42  1  0
 42 43  2  0
 43 44  1  0
 35 45  1  0
 45 46  2  0
 45 47  1  0
 47 48  1  0
 47 49  1  0
 49 50  2  0
 12  8  1  0
 28 24  1  0
 50 30  1  0
 49 33  1  0
 43 37  1  0
M  RAD  1  19   2
M  END

