
     RDKit          3D

 56 59  0  0  0  0  0  0  0  0999 V2000
    4.5406   -1.2744   -1.7600 C   0  0  0  0  0  0  0  0  0  0  0  0
    4.9465    0.1385   -0.9891 C   0  0  2  0  0  0  0  0  0  0  0  0
    6.2044   -0.6138   -0.1676 C   0  0  0  0  0  0  0  0  0  0  0  0
    6.6954    0.5219    0.5898 N   0  0  0  0  0  0  0  0  0  0  0  0
    7.6343    1.3263    0.1151 N   0  0  0  0  0  0  0  0  0  0  0  0
    7.8931    2.2878    1.0244 C   0  0  0  0  0  0  0  0  0  0  0  0
    7.0908    2.0545    2.0687 N   0  0  0  0  0  0  0  0  0  0  0  0
    6.3658    0.9636    1.7748 N   0  0  0  0  0  0  0  0  0  0  0  0
    3.9471   -0.1254    0.2073 N   0  0  0  0  0  0  0  0  0  0  0  0
    2.5853   -0.2352   -0.2522 C   0  0  0  0  0  0  0  0  0  0  0  0
    2.2107   -0.1286   -1.5223 N   0  0  0  0  0  0  0  0  0  0  0  0
    0.9175   -0.2427   -1.8761 C   0  0  0  0  0  0  0  0  0  0  0  0
   -0.0778   -0.4766   -0.9260 C   0  0  0  0  0  0  0  0  0  0  0  0
   -1.3872   -0.5983   -1.2278 C   0  0  0  0  0  0  0  0  0  0  0  0
   -2.3963   -0.8412   -0.2142 C   0  0  0  0  0  0  0  0  0  0  0  0
   -3.6468   -0.9442   -0.6354 O   0  0  0  0  0  0  0  0  0  0  0  0
   -4.8169   -0.3486   -0.5562 C   0  0  0  0  0  0  0  0  0  0  0  0
   -5.2439    0.1694   -1.8345 C   0  0  0  0  0  0  0  0  0  0  0  0
   -6.4072    0.8124   -1.9863 C   0  0  0  0  0  0  0  0  0  0  0  0
   -7.2622    1.0139   -0.9223 C   0  0  0  0  0  0  0  0  0  0  0  0
   -8.4350    1.6738   -1.1229 F   0  0  0  0  0  0  0  0  0  0  0  0
   -6.8585    0.5259    0.2754 C   0  0  0  0  0  0  0  0  0  0  0  0
   -5.6477   -0.1565    0.4871 C   0  0  0  0  0  0  0  0  0  0  0  0
   -5.3569   -0.6282    1.7073 F   0  0  0  0  0  0  0  0  0  0  0  0
   -1.9468   -0.9412    1.0643 C   0  0  0  0  0  0  0  0  0  0  0  0
   -2.7303   -1.1550    2.0197 O   0  0  0  0  0  0  0  0  0  0  0  0
   -0.6109   -0.8102    1.3204 N   0  0  0  0  0  0  0  0  0  0  0  0
   -0.1704   -0.9224    2.7015 C   0  0  0  0  0  0  0  0  0  0  0  0
    0.3216   -0.5855    0.3886 C   0  0  0  0  0  0  0  0  0  0  0  0
    1.6418   -0.4599    0.6732 N   0  0  0  0  0  0  0  0  0  0  0  0
   -6.0241   -3.9553   -0.0768 O   0  0  0  0  0  1  0  0  0  0  0  0
   -6.6909   -2.7408   -0.1040 C   0  0  0  0  0  0  0  0  0  0  0  0
   -7.4317   -2.4466   -1.0757 O   0  0  0  0  0  0  0  0  0  0  0  0
   -6.5045   -1.8017    1.0441 C   0  0  0  0  0  0  0  0  0  0  0  0
   -5.5255   -0.7406    0.5737 C   0  0  0  0  0  0  0  0  0  0  0  0
   -4.2244   -1.4404    0.1995 C   0  0  0  0  0  0  0  0  0  0  0  0
   -3.2483   -0.4193   -0.2646 C   0  0  0  0  0  0  0  0  0  0  0  0
   -3.5552    0.7830   -0.3011 O   0  0  0  0  0  0  0  0  0  0  0  0
   -1.9968   -0.8379   -0.6528 N   0  0  0  0  0  0  0  0  0  0  0  0
   -0.9120    0.1608   -1.1518 C   0  0  1  0  0  0  0  0  0  0  0  0
   -1.1160    1.2872    0.0498 C   0  0  0  0  0  0  0  0  0  0  0  0
   -0.0655    2.2986   -0.3970 C   0  0  0  0  0  0  0  0  0  0  0  0
   -0.0044    3.4569    0.5012 C   0  0  0  0  0  0  0  0  0  0  0  0
    0.8771    4.4716    0.2652 O   0  0  0  0  0  1  0  0  0  0  0  0
   -0.7820    3.4840    1.4841 O   0  0  0  0  0  0  0  0  0  0  0  0
    0.3220   -0.5415   -0.4547 C   0  0  0  0  0  0  0  0  0  0  0  0
    0.2673   -1.5304    0.2183 O   0  0  0  0  0  0  0  0  0  0  0  0
    1.5203    0.1396   -0.7186 N   0  0  0  0  0  0  0  0  0  0  0  0
    2.7568   -0.3358   -0.1784 C   0  0  0  0  0  0  0  0  0  0  0  0
    3.8274    0.6434   -0.6669 C   0  0  0  0  0  0  0  0  0  0  0  0
    5.1717    0.2871   -0.1915 C   0  0  0  0  0  0  0  0  0  0  0  0
    5.5809    0.8161    1.0209 C   0  0  0  0  0  0  0  0  0  0  0  0
    6.8037    0.5572    1.5595 C   0  0  0  0  0  0  0  0  0  0  0  0
    7.6580   -0.2655    0.8598 C   0  0  0  0  0  0  0  0  0  0  0  0
    7.2646   -0.7978   -0.3455 C   0  0  0  0  0  0  0  0  0  0  0  0
    6.0318   -0.5318   -0.8803 C   0  0  0  0  0  0  0  0  0  0  0  0
  2  1  1  6
  2  3  1  0
  3  4  1  0
  4  5  1  0
  5  6  2  0
  6  7  1  0
  7  8  2  0
  2  9  1  0
  9 10  1  0
 10 11  2  0
 11 12  1  0
 12 13  2  0
 13 14  1  0
 14 15  2  0
 15 16  1  0
 16 17  1  0
 17 18  2  0
 18 19  1  0
 19 20  2  0
 20 21  1  0
 20 22  1  0
 22 23  2  0
 23 24  1  0
 15 25  1  0
 25 26  2  0
 25 27  1  0
 27 28  1  0
 27 29  1  0
 29 30  2  0
 31 32  1  0
 32 33  2  0
 32 34  1  0
 34 35  1  0
 35 36  1  0
 36 37  1  0
 37 38  2  0
 37 39  1  0
 39 40  1  0
 40 41  1  1
 41 42  1  0
 42 43  1  0
 43 44  1  0
 43 45  2  0
 40 46  1  0
 46 47  2  0
 46 48  1  0
 48 49  1  0
 49 50  1  0
 50 51  1  0
 51 52  2  0
 52 53  1  0
 53 54  2  0
 54 55  1  0
 55 56  2  0
  8  4  1  0
 30 10  1  0
 56 51  1  0
 29 13  1  0
 23 17  1  0
M  RAD  2  31   2  44   2
M  END

