
     RDKit          3D

 52 54  0  0  0  0  0  0  0  0999 V2000
    4.1663   -2.3338    0.0644 C   0  0  0  0  0  0  0  0  0  0  0  0
    4.6830   -1.2823   -0.9154 C   0  0  0  0  0  0  0  0  0  0  0  0
    3.3315   -0.6380   -1.5672 C   0  0  2  0  0  0  0  0  0  0  0  0
    4.1662    0.3948   -2.5197 C   0  0  0  0  0  0  0  0  0  0  0  0
    3.1720    0.4516   -0.3551 C   0  0  0  0  0  0  0  0  0  0  0  0
    1.9786    1.2245   -0.6772 N   0  0  0  0  0  0  0  0  0  0  0  0
    0.8030    0.5527   -0.7859 C   0  0  0  0  0  0  0  0  0  0  0  0
    0.7611   -0.6683   -0.6169 O   0  0  0  0  0  0  0  0  0  0  0  0
   -0.5771    1.2259   -1.1232 C   0  0  2  0  0  0  0  0  0  0  0  0
   -0.9670    1.8153    0.3637 C   0  0  0  0  0  0  0  0  0  0  0  0
    0.1262    2.7539    0.7385 C   0  0  0  0  0  0  0  0  0  0  0  0
    0.2854    3.9174   -0.2457 C   0  0  0  0  0  0  0  0  0  0  0  0
   -0.8352    4.7120   -0.3735 C   0  0  0  0  0  0  0  0  0  0  0  0
   -1.6218    5.4826    0.3654 N   0  0  0  0  0  4  0  0  0  0  0  0
   -1.5073   -0.0125   -1.0962 N   0  0  0  0  0  0  0  0  0  0  0  0
   -1.7118   -0.7129    0.0917 C   0  0  0  0  0  0  0  0  0  0  0  0
   -1.1678   -0.3613    1.1158 O   0  0  0  0  0  0  0  0  0  0  0  0
   -2.6114   -1.8859    0.0323 C   0  0  0  0  0  0  0  0  0  0  0  0
   -2.6326   -2.4437    1.3749 C   0  0  0  0  0  0  0  0  0  0  0  0
   -3.3771   -3.5865    1.7547 C   0  0  0  0  0  0  0  0  0  0  0  0
   -3.1080   -4.9026    1.0764 C   0  0  0  0  0  0  0  0  0  0  0  0
   -3.3561   -3.7029    3.2982 C   0  0  0  0  0  0  0  0  0  0  0  0
   -5.8873   -0.6499    2.4244 C   0  0  0  0  0  0  0  0  0  0  0  0
   -4.6062    0.3548    2.4982 C   0  0  2  0  0  0  0  0  0  0  0  0
   -5.2041    1.4259    1.4406 C   0  0  0  0  0  0  0  0  0  0  0  0
   -5.4260    0.7359    0.1800 N   0  0  0  0  0  0  0  0  0  0  0  0
   -4.5254    0.6566   -0.7385 N   0  0  0  0  0  0  0  0  0  0  0  0
   -5.0170   -0.0354   -1.7781 C   0  0  0  0  0  0  0  0  0  0  0  0
   -6.2722   -0.3764   -1.4439 N   0  0  0  0  0  0  0  0  0  0  0  0
   -6.4949    0.1066   -0.2458 N   0  0  0  0  0  0  0  0  0  0  0  0
   -3.7591   -0.4348    1.4609 N   0  0  0  0  0  0  0  0  0  0  0  0
   -2.4778    0.1267    1.2034 C   0  0  0  0  0  0  0  0  0  0  0  0
   -2.0172    1.2396    1.7913 N   0  0  0  0  0  0  0  0  0  0  0  0
   -0.7890    1.6992    1.4858 C   0  0  0  0  0  0  0  0  0  0  0  0
    0.0303    1.0614    0.5766 C   0  0  0  0  0  0  0  0  0  0  0  0
    1.2926    1.5132    0.2472 C   0  0  0  0  0  0  0  0  0  0  0  0
    2.0322    0.8071   -0.6708 C   0  0  0  0  0  0  0  0  0  0  0  0
    3.2907    1.2534   -1.0024 O   0  0  0  0  0  0  0  0  0  0  0  0
    4.3689    0.4169   -0.7664 C   0  0  0  0  0  0  0  0  0  0  0  0
    5.1614    0.0160   -1.8057 C   0  0  0  0  0  0  0  0  0  0  0  0
    6.2274   -0.8049   -1.6073 C   0  0  0  0  0  0  0  0  0  0  0  0
    6.5516   -1.2668   -0.3441 C   0  0  0  0  0  0  0  0  0  0  0  0
    7.6109   -2.0857   -0.1285 F   0  0  0  0  0  0  0  0  0  0  0  0
    5.7499   -0.8599    0.7002 C   0  0  0  0  0  0  0  0  0  0  0  0
    4.6725   -0.0292    0.4934 C   0  0  0  0  0  0  0  0  0  0  0  0
    3.9096    0.3517    1.5226 F   0  0  0  0  0  0  0  0  0  0  0  0
    1.5173   -0.3438   -1.2584 C   0  0  0  0  0  0  0  0  0  0  0  0
    2.1890   -0.9876   -2.0941 O   0  0  0  0  0  0  0  0  0  0  0  0
    0.2916   -0.7652   -0.9257 N   0  0  0  0  0  0  0  0  0  0  0  0
   -0.2803   -1.9560   -1.5129 C   0  0  0  0  0  0  0  0  0  0  0  0
   -0.4620   -0.0908   -0.0238 C   0  0  0  0  0  0  0  0  0  0  0  0
   -1.6772   -0.4875    0.3218 N   0  0  0  0  0  0  0  0  0  0  0  0
  1  2  1  0
  2  3  1  0
  3  4  1  6
  3  5  1  0
  5  6  1  0
  6  7  1  0
  7  8  2  0
  7  9  1  0
  9 10  1  1
 10 11  1  0
 11 12  1  0
 12 13  1  0
 13 14  1  0
  9 15  1  0
 15 16  1  0
 16 17  2  0
 16 18  1  0
 18 19  1  0
 19 20  1  0
 20 21  1  0
 20 22  1  0
 24 23  1  6
 24 25  1  0
 25 26  1  0
 26 27  1  0
 27 28  2  0
 28 29  1  0
 29 30  2  0
 24 31  1  0
 31 32  1  0
 32 33  2  0
 33 34  1  0
 34 35  2  0
 35 36  1  0
 36 37  2  0
 37 38  1  0
 38 39  1  0
 39 40  2  0
 40 41  1  0
 41 42  2  0
 42 43  1  0
 42 44  1  0
 44 45  2  0
 45 46  1  0
 37 47  1  0
 47 48  2  0
 47 49  1  0
 49 50  1  0
 49 51  1  0
 51 52  2  0
 30 26  1  0
 52 32  1  0
 51 35  1  0
 45 39  1  0
M  CHG  1  14   1
M  END

