
     RDKit          3D

 51 54  0  0  0  0  0  0  0  0999 V2000
   -5.5021    1.6093    1.2009 C   0  0  0  0  0  0  0  0  0  0  0  0
   -3.7394    1.9113    0.8784 S   0  0  0  0  0  0  0  0  0  0  0  0
   -3.3096    1.2312   -0.7579 C   0  0  0  0  0  0  0  0  0  0  0  0
   -1.8511    1.4905   -0.9820 C   0  0  0  0  0  0  0  0  0  0  0  0
   -1.0634    0.6533    0.2448 C   0  0  2  0  0  0  0  0  0  0  0  0
    0.3486    1.1593   -0.2666 N   0  0  0  0  0  0  0  0  0  0  0  0
    1.4319    0.3369    0.2250 C   0  0  0  0  0  0  0  0  0  0  0  0
    1.1657   -0.6306    0.9595 O   0  0  0  0  0  0  0  0  0  0  0  0
    2.8481    0.6671   -0.1589 C   0  0  0  0  0  0  0  0  0  0  0  0
    3.7306   -0.3473    0.4985 C   0  0  0  0  0  0  0  0  0  0  0  0
    5.1968   -0.1727    0.2308 C   0  0  0  0  0  0  0  0  0  0  0  0
    5.6112    1.1709    0.7367 C   0  0  0  0  0  0  0  0  0  0  0  0
    6.9640    1.5474    0.5994 N   0  0  0  0  0  0  0  0  0  0  0  0
    4.7859    1.9446    1.2676 O   0  0  0  0  0  0  0  0  0  0  0  0
   -1.0242   -0.7355   -0.5583 C   0  0  0  0  0  0  0  0  0  0  0  0
   -0.0692   -0.9735   -1.3277 O   0  0  0  0  0  0  0  0  0  0  0  0
   -2.0808   -1.6343   -0.3524 N   0  0  0  0  0  0  0  0  0  0  0  0
   -2.2289   -2.9085   -0.9822 C   0  0  0  0  0  0  0  0  0  0  0  0
   -3.6882   -2.8091   -1.4652 C   0  0  0  0  0  0  0  0  0  0  0  0
   -4.3303   -2.0332   -0.3194 C   0  0  0  0  0  0  0  0  0  0  0  0
   -3.1956   -1.4770    0.5111 C   0  0  0  0  0  0  0  0  0  0  0  0
    4.2481   -1.6321   -1.8310 C   0  0  0  0  0  0  0  0  0  0  0  0
    4.9934   -0.2745   -1.2416 C   0  0  2  0  0  0  0  0  0  0  0  0
    4.0161   -0.1862    0.0833 C   0  0  0  0  0  0  0  0  0  0  0  0
    4.5535    1.0073    0.7492 N   0  0  0  0  0  0  0  0  0  0  0  0
    4.1096    2.2191    0.5108 N   0  0  0  0  0  0  0  0  0  0  0  0
    4.8332    3.0410    1.2960 C   0  0  0  0  0  0  0  0  0  0  0  0
    5.6966    2.3024    1.9892 N   0  0  0  0  0  0  0  0  0  0  0  0
    5.5202    1.0356    1.6466 N   0  0  0  0  0  0  0  0  0  0  0  0
    4.1263    0.7057   -2.1120 N   0  0  0  0  0  0  0  0  0  0  0  0
    2.7215    0.6082   -1.9778 C   0  0  0  0  0  0  0  0  0  0  0  0
    1.9665    1.4394   -2.7144 N   0  0  0  0  0  0  0  0  0  0  0  0
    0.6166    1.4192   -2.6539 C   0  0  0  0  0  0  0  0  0  0  0  0
   -0.0181    0.5252   -1.8168 C   0  0  0  0  0  0  0  0  0  0  0  0
   -1.4003    0.4518   -1.7069 C   0  0  0  0  0  0  0  0  0  0  0  0
   -2.0218   -0.4445   -0.8680 C   0  0  0  0  0  0  0  0  0  0  0  0
   -3.3850   -0.5258   -0.7514 O   0  0  0  0  0  0  0  0  0  0  0  0
   -4.0930   -0.3289    0.4137 C   0  0  0  0  0  0  0  0  0  0  0  0
   -3.4916   -0.0219    1.6147 C   0  0  0  0  0  0  0  0  0  0  0  0
   -4.2300    0.1720    2.7770 C   0  0  0  0  0  0  0  0  0  0  0  0
   -5.6034    0.0615    2.7620 C   0  0  0  0  0  0  0  0  0  0  0  0
   -6.3133    0.2559    3.9165 F   0  0  0  0  0  0  0  0  0  0  0  0
   -6.2151   -0.2441    1.5713 C   0  0  0  0  0  0  0  0  0  0  0  0
   -5.4668   -0.4382    0.4048 C   0  0  0  0  0  0  0  0  0  0  0  0
   -6.1698   -0.7354   -0.7146 F   0  0  0  0  0  0  0  0  0  0  0  0
   -1.2132   -1.2791   -0.1301 C   0  0  0  0  0  0  0  0  0  0  0  0
   -1.7064   -2.1394    0.6718 O   0  0  0  0  0  0  0  0  0  0  0  0
    0.1344   -1.2124   -0.2329 N   0  0  0  0  0  0  0  0  0  0  0  0
    0.9502   -2.1092    0.5616 C   0  0  0  0  0  0  0  0  0  0  0  0
    0.7566   -0.3424   -1.0477 C   0  0  0  0  0  0  0  0  0  0  0  0
    2.0848   -0.2546   -1.1692 N   0  0  0  0  0  0  0  0  0  0  0  0
  1  2  1  0
  2  3  1  0
  3  4  1  0
  5  4  1  6
  5  6  1  0
  6  7  1  0
  7  8  2  0
  7  9  1  0
  9 10  1  0
 10 11  1  0
 11 12  1  0
 12 13  1  0
 12 14  2  0
  5 15  1  0
 15 16  2  0
 15 17  1  0
 17 18  1  0
 18 19  1  0
 19 20  1  0
 20 21  1  0
 23 22  1  6
 23 24  1  0
 24 25  1  0
 25 26  1  0
 26 27  2  0
 27 28  1  0
 28 29  2  0
 23 30  1  0
 30 31  1  0
 31 32  2  0
 32 33  1  0
 33 34  2  0
 34 35  1  0
 35 36  2  0
 36 37  1  0
 37 38  1  0
 38 39  2  0
 39 40  1  0
 40 41  2  0
 41 42  1  0
 41 43  1  0
 43 44  2  0
 44 45  1  0
 36 46  1  0
 46 47  2  0
 46 48  1  0
 48 49  1  0
 48 50  1  0
 50 51  2  0
 21 17  1  0
 29 25  1  0
 51 31  1  0
 50 34  1  0
 44 38  1  0
M  END

