
     RDKit          3D

 46 48  0  0  0  0  0  0  0  0999 V2000
   -3.4626    0.6048    0.9434 C   0  0  0  0  0  0  0  0  0  0  0  0
   -4.0471   -0.4738    0.0909 C   0  0  0  0  0  0  0  0  0  0  0  0
   -5.3930   -0.1323   -0.4827 C   0  0  0  0  0  0  0  0  0  0  0  0
   -3.0948   -1.0523   -0.9037 C   0  0  0  0  0  0  0  0  0  0  0  0
   -2.6115    0.0333   -1.8379 C   0  0  0  0  0  0  0  0  0  0  0  0
   -1.9390    1.0718   -1.1006 N   0  0  0  0  0  0  0  0  0  0  0  0
   -0.7848    0.7543   -0.3346 C   0  0  0  0  0  0  0  0  0  0  0  0
   -0.3389   -0.4095   -0.2864 O   0  0  0  0  0  0  0  0  0  0  0  0
   -0.0952    1.8220    0.4222 C   0  0  0  0  0  0  0  0  0  0  0  0
    1.0473    1.2950    1.1297 N   0  0  0  0  0  0  0  0  0  0  0  0
    2.1280    0.6683    0.4582 C   0  0  0  0  0  0  0  0  0  0  0  0
    2.0623    0.5843   -0.7781 O   0  0  0  0  0  0  0  0  0  0  0  0
    3.2690    0.1506    1.2541 C   0  0  0  0  0  0  0  0  0  0  0  0
    4.2793   -0.4869    0.0856 C   0  0  1  0  0  0  0  0  0  0  0  0
    5.4122   -0.9679    1.2212 C   0  0  0  0  0  0  0  0  0  0  0  0
    3.5688   -1.8549    0.1186 O   0  0  0  0  0  0  0  0  0  0  0  0
   -6.5853   -1.2793   -0.2725 C   0  0  0  0  0  0  0  0  0  0  0  0
   -5.1097   -1.9075    0.1430 C   0  0  2  0  0  0  0  0  0  0  0  0
   -5.0960   -1.1817    1.6236 C   0  0  0  0  0  0  0  0  0  0  0  0
   -5.1727    0.2214    1.4358 N   0  0  0  0  0  0  0  0  0  0  0  0
   -4.0645    0.9690    1.3047 N   0  0  0  0  0  0  0  0  0  0  0  0
   -4.4140    2.2548    1.1401 C   0  0  0  0  0  0  0  0  0  0  0  0
   -5.7470    2.2922    1.1712 N   0  0  0  0  0  0  0  0  0  0  0  0
   -6.1646    1.0612    1.3491 N   0  0  0  0  0  0  0  0  0  0  0  0
   -4.3000   -0.7658   -0.5902 N   0  0  0  0  0  0  0  0  0  0  0  0
   -2.8800   -0.9478   -0.4636 C   0  0  0  0  0  0  0  0  0  0  0  0
   -2.3166   -1.9569    0.1926 N   0  0  0  0  0  0  0  0  0  0  0  0
   -0.9907   -2.1242    0.3092 C   0  0  0  0  0  0  0  0  0  0  0  0
   -0.1220   -1.1958   -0.2858 C   0  0  0  0  0  0  0  0  0  0  0  0
    1.2144   -1.3020   -0.2080 C   0  0  0  0  0  0  0  0  0  0  0  0
    2.0568   -0.3263   -0.8334 C   0  0  0  0  0  0  0  0  0  0  0  0
    3.3712   -0.5295   -0.6964 O   0  0  0  0  0  0  0  0  0  0  0  0
    4.4258    0.0240   -0.1334 C   0  0  0  0  0  0  0  0  0  0  0  0
    5.0198   -0.7300    0.9346 C   0  0  0  0  0  0  0  0  0  0  0  0
    6.1029   -0.2642    1.5811 C   0  0  0  0  0  0  0  0  0  0  0  0
    6.7029    0.9384    1.2715 C   0  0  0  0  0  0  0  0  0  0  0  0
    7.7866    1.3105    1.9858 F   0  0  0  0  0  0  0  0  0  0  0  0
    6.1691    1.6725    0.2706 C   0  0  0  0  0  0  0  0  0  0  0  0
    5.0401    1.1944   -0.4095 C   0  0  0  0  0  0  0  0  0  0  0  0
    4.6631    2.0358   -1.4096 F   0  0  0  0  0  0  0  0  0  0  0  0
    1.4586    0.6967   -1.5007 C   0  0  0  0  0  0  0  0  0  0  0  0
    2.1110    1.6097   -2.0932 O   0  0  0  0  0  0  0  0  0  0  0  0
    0.0963    0.7581   -1.5487 N   0  0  0  0  0  0  0  0  0  0  0  0
   -0.4964    1.8584   -2.2646 C   0  0  0  0  0  0  0  0  0  0  0  0
   -0.7060   -0.1374   -0.9740 C   0  0  0  0  0  0  0  0  0  0  0  0
   -2.0533   -0.0649   -1.0294 N   0  0  0  0  0  0  0  0  0  0  0  0
  1  2  1  0
  2  3  1  0
  2  4  1  0
  4  5  1  0
  5  6  1  0
  6  7  1  0
  7  8  2  0
  7  9  1  0
  9 10  1  0
 10 11  1  0
 11 12  2  0
 11 13  1  0
 13 14  1  0
 14 15  1  1
 14 16  1  0
 18 17  1  6
 18 19  1  0
 19 20  1  0
 20 21  1  0
 21 22  2  0
 22 23  1  0
 23 24  2  0
 18 25  1  0
 25 26  1  0
 26 27  2  0
 27 28  1  0
 28 29  2  0
 29 30  1  0
 30 31  2  0
 31 32  1  0
 32 33  1  0
 33 34  2  0
 34 35  1  0
 35 36  2  0
 36 37  1  0
 36 38  1  0
 38 39  2  0
 39 40  1  0
 31 41  1  0
 41 42  2  0
 41 43  1  0
 43 44  1  0
 43 45  1  0
 45 46  2  0
 24 20  1  0
 46 26  1  0
 45 29  1  0
 39 33  1  0
M  END

