
     RDKit          3D

 52 55  0  0  0  0  0  0  0  0999 V2000
   -0.6369   -2.6072    0.2826 C   0  0  0  0  0  0  0  0  0  0  0  0
    0.0318   -1.8057   -0.9331 C   0  0  1  0  0  0  0  0  0  0  0  0
   -0.7586   -2.4087   -2.0474 O   0  0  0  0  0  0  0  0  0  0  0  0
   -0.7673   -0.2884   -0.8590 C   0  0  2  0  0  0  0  0  0  0  0  0
   -0.0262    0.1710    0.3921 N   0  0  0  0  0  0  0  0  0  0  0  0
    1.3410   -0.0740    0.6099 C   0  0  0  0  0  0  0  0  0  0  0  0
    1.9920   -0.7031   -0.2577 O   0  0  0  0  0  0  0  0  0  0  0  0
    2.0154    0.4200    1.8533 C   0  0  0  0  0  0  0  0  0  0  0  0
    3.4577    0.2064    1.9001 C   0  0  0  0  0  0  0  0  0  0  0  0
    4.2139    0.8252    0.7992 C   0  0  0  0  0  0  0  0  0  0  0  0
    3.8793    1.4809   -0.3700 C   0  0  0  0  0  0  0  0  0  0  0  0
    4.9759    1.8977   -1.0244 N   0  0  0  0  0  0  0  0  0  0  0  0
    6.0385    1.5036   -0.2762 C   0  0  0  0  0  0  0  0  0  0  0  0
    5.6036    0.8720    0.8015 N   0  0  0  0  0  0  0  0  0  0  0  0
   -2.0785   -0.7060   -0.1432 C   0  0  0  0  0  0  0  0  0  0  0  0
   -2.4255   -1.8677   -0.2389 O   0  0  0  0  0  0  0  0  0  0  0  0
   -2.8304    0.2219    0.5910 N   0  0  0  0  0  0  0  0  0  0  0  0
   -4.1002   -0.3004    1.1743 C   0  0  0  0  0  0  0  0  0  0  0  0
   -4.9013   -0.5778   -0.1675 C   0  0  0  0  0  0  0  0  0  0  0  0
   -4.9945    0.8273   -0.7302 C   0  0  0  0  0  0  0  0  0  0  0  0
   -5.0338    1.1229   -2.0680 O   0  0  0  0  0  1  0  0  0  0  0  0
   -4.9960    1.7902    0.0970 O   0  0  0  0  0  0  0  0  0  0  0  0
   -4.5831   -0.6941   -0.9724 C   0  0  0  0  0  0  0  0  0  0  0  0
   -4.5967   -1.2018    0.6229 C   0  0  2  0  0  0  0  0  0  0  0  0
   -5.8738   -0.1931    1.0050 C   0  0  0  0  0  0  0  0  0  0  0  0
   -6.8678   -0.7263    0.0816 N   0  0  0  0  0  0  0  0  0  0  0  0
   -7.7245   -1.7010    0.3261 N   0  0  0  0  0  0  0  0  0  0  0  0
   -8.4546   -1.8886   -0.7642 C   0  0  0  0  0  0  0  0  0  0  0  0
   -8.0411   -1.0186   -1.6886 N   0  0  0  0  0  0  0  0  0  0  0  0
   -7.0721   -0.3166   -1.1564 N   0  0  0  0  0  0  0  0  0  0  0  0
   -3.5196   -0.1398    1.0803 N   0  0  0  0  0  0  0  0  0  0  0  0
   -2.2656   -0.2335    0.4343 C   0  0  0  0  0  0  0  0  0  0  0  0
   -1.9520   -1.1288   -0.4998 N   0  0  0  0  0  0  0  0  0  0  0  0
   -0.7150   -1.1510   -1.0748 C   0  0  0  0  0  0  0  0  0  0  0  0
    0.2580   -0.2419   -0.7062 C   0  0  0  0  0  0  0  0  0  0  0  0
    1.5280   -0.2371   -1.2722 C   0  0  0  0  0  0  0  0  0  0  0  0
    2.4733    0.6881   -0.8768 C   0  0  0  0  0  0  0  0  0  0  0  0
    3.7582    0.7546   -1.3948 O   0  0  0  0  0  0  0  0  0  0  0  0
    4.8958    0.6088   -0.6140 C   0  0  0  0  0  0  0  0  0  0  0  0
    5.8797    1.5644   -0.4701 C   0  0  0  0  0  0  0  0  0  0  0  0
    6.9923    1.3548    0.3265 C   0  0  0  0  0  0  0  0  0  0  0  0
    7.1774    0.1816    1.0183 C   0  0  0  0  0  0  0  0  0  0  0  0
    8.2748   -0.0362    1.8094 F   0  0  0  0  0  0  0  0  0  0  0  0
    6.2012   -0.7762    0.8802 C   0  0  0  0  0  0  0  0  0  0  0  0
    5.0816   -0.5692    0.0805 C   0  0  0  0  0  0  0  0  0  0  0  0
    4.1257   -1.5378   -0.0396 F   0  0  0  0  0  0  0  0  0  0  0  0
    2.0972    1.5910    0.0921 C   0  0  0  0  0  0  0  0  0  0  0  0
    2.9551    2.4352    0.4549 O   0  0  0  0  0  0  0  0  0  0  0  0
    0.8504    1.5613    0.6256 N   0  0  0  0  0  0  0  0  0  0  0  0
    0.5295    2.5379    1.6349 C   0  0  0  0  0  0  0  0  0  0  0  0
   -0.0884    0.6763    0.2629 C   0  0  0  0  0  0  0  0  0  0  0  0
   -1.3237    0.6503    0.7944 N   0  0  0  0  0  0  0  0  0  0  0  0
  2  1  1  1
  2  3  1  0
  2  4  1  0
  4  5  1  1
  5  6  1  0
  6  7  2  0
  6  8  1  0
  8  9  1  0
  9 10  1  0
 10 11  2  0
 11 12  1  0
 12 13  1  0
 13 14  2  0
  4 15  1  0
 15 16  2  0
 15 17  1  0
 17 18  1  0
 18 19  1  0
 19 20  1  0
 20 21  1  0
 20 22  2  0
 24 23  1  6
 24 25  1  0
 25 26  1  0
 26 27  1  0
 27 28  2  0
 28 29  1  0
 29 30  2  0
 24 31  1  0
 31 32  1  0
 32 33  2  0
 33 34  1  0
 34 35  2  0
 35 36  1  0
 36 37  2  0
 37 38  1  0
 38 39  1  0
 39 40  2  0
 40 41  1  0
 41 42  2  0
 42 43  1  0
 42 44  1  0
 44 45  2  0
 45 46  1  0
 37 47  1  0
 47 48  2  0
 47 49  1  0
 49 50  1  0
 49 51  1  0
 51 52  2  0
 14 10  1  0
 30 26  1  0
 52 32  1  0
 51 35  1  0
 45 39  1  0
M  RAD  1  21   2
M  END

