
     RDKit          3D

 49 51  0  0  0  0  0  0  0  0999 V2000
   -2.0124    0.3280    2.5365 C   0  0  0  0  0  0  0  0  0  0  0  0
   -3.6057    0.4844    2.1850 C   0  0  1  0  0  0  0  0  0  0  0  0
   -3.3872    1.3251    0.9626 O   0  0  0  0  0  0  0  0  0  0  0  0
   -3.7193   -0.9288    1.3952 C   0  0  0  0  0  0  0  0  0  0  0  0
   -2.8073   -0.9520    0.2703 C   0  0  0  0  0  0  0  0  0  0  0  0
   -2.0392    0.0023    0.0531 O   0  0  0  0  0  0  0  0  0  0  0  0
   -2.7176   -2.0421   -0.6558 N   0  0  0  0  0  0  0  0  0  0  0  0
   -1.7878   -2.0141   -1.7589 C   0  0  0  0  0  0  0  0  0  0  0  0
   -0.4172   -1.9153   -1.2191 C   0  0  0  0  0  0  0  0  0  0  0  0
   -0.2319   -1.8773    0.0102 O   0  0  0  0  0  0  0  0  0  0  0  0
    0.7204   -1.8612   -2.0776 N   0  0  0  0  0  0  0  0  0  0  0  0
    2.0439   -1.7642   -1.4778 C   0  0  0  0  0  0  0  0  0  0  0  0
    2.1008   -0.4933   -0.6523 C   0  0  0  0  0  0  0  0  0  0  0  0
    1.8515    0.6461   -1.5483 C   0  0  0  0  0  0  0  0  0  0  0  0
    1.8408    2.0049   -1.0558 C   0  0  0  0  0  0  0  0  0  0  0  0
    2.9440    2.5984   -0.4460 N   0  0  0  0  0  0  0  0  0  0  0  0
    3.5125    2.1143    0.7541 C   0  0  0  0  0  0  0  0  0  0  0  0
    4.6584    2.7677    1.3438 N   0  0  0  0  0  0  0  0  0  0  0  0
    3.0535    1.0841    1.3808 N   0  0  0  0  0  4  0  0  0  0  0  0
    5.4359   -0.7999    2.0246 C   0  0  0  0  0  0  0  0  0  0  0  0
    4.2187   -0.9174    0.9102 C   0  0  2  0  0  0  0  0  0  0  0  0
    4.4590    0.5892    0.2803 C   0  0  0  0  0  0  0  0  0  0  0  0
    5.8087    0.6249   -0.2308 N   0  0  0  0  0  0  0  0  0  0  0  0
    6.8574    0.9869    0.4622 N   0  0  0  0  0  0  0  0  0  0  0  0
    7.9472    0.9131   -0.2853 C   0  0  0  0  0  0  0  0  0  0  0  0
    7.5554    0.4877   -1.4904 N   0  0  0  0  0  0  0  0  0  0  0  0
    6.2497    0.3186   -1.4351 N   0  0  0  0  0  0  0  0  0  0  0  0
    3.1476   -0.3980    1.9257 N   0  0  0  0  0  0  0  0  0  0  0  0
    1.8389   -0.2918    1.4730 C   0  0  0  0  0  0  0  0  0  0  0  0
    0.8861    0.1473    2.3028 N   0  0  0  0  0  0  0  0  0  0  0  0
   -0.3862    0.2475    1.8529 C   0  0  0  0  0  0  0  0  0  0  0  0
   -0.7493   -0.0809    0.5803 C   0  0  0  0  0  0  0  0  0  0  0  0
   -2.0163    0.0005    0.0734 C   0  0  0  0  0  0  0  0  0  0  0  0
   -2.3213   -0.3511   -1.2381 C   0  0  0  0  0  0  0  0  0  0  0  0
   -3.6171   -0.2604   -1.7328 O   0  0  0  0  0  0  0  0  0  0  0  0
   -4.6167    0.1994   -0.8649 C   0  0  0  0  0  0  0  0  0  0  0  0
   -5.2833    1.3282   -1.2295 C   0  0  0  0  0  0  0  0  0  0  0  0
   -6.2827    1.7944   -0.3690 C   0  0  0  0  0  0  0  0  0  0  0  0
   -6.5801    1.1378    0.7994 C   0  0  0  0  0  0  0  0  0  0  0  0
   -7.5579    1.6375    1.5912 F   0  0  0  0  0  0  0  0  0  0  0  0
   -5.8911    0.0084    1.1333 C   0  0  0  0  0  0  0  0  0  0  0  0
   -4.9058   -0.4643    0.3002 C   0  0  0  0  0  0  0  0  0  0  0  0
   -4.2031   -1.5734    0.5916 F   0  0  0  0  0  0  0  0  0  0  0  0
   -1.2806   -0.7896   -2.0127 C   0  0  0  0  0  0  0  0  0  0  0  0
   -1.5201   -1.1182   -3.2109 O   0  0  0  0  0  0  0  0  0  0  0  0
   -0.0212   -0.8734   -1.5181 N   0  0  0  0  0  0  0  0  0  0  0  0
    1.0512   -1.3447   -2.3786 C   0  0  0  0  0  0  0  0  0  0  0  0
    0.2567   -0.5353   -0.2661 C   0  0  0  0  0  0  0  0  0  0  0  0
    1.5199   -0.6232    0.2177 N   0  0  0  0  0  0  0  0  0  0  0  0
  2  1  1  1
  2  3  1  0
  2  4  1  0
  4  5  1  0
  5  6  2  0
  5  7  1  0
  7  8  1  0
  8  9  1  0
  9 10  2  0
  9 11  1  0
 11 12  1  0
 12 13  1  0
 13 14  1  0
 14 15  1  0
 15 16  1  0
 16 17  1  0
 17 18  1  0
 17 19  2  0
 21 20  1  1
 21 22  1  0
 22 23  1  0
 23 24  1  0
 24 25  2  0
 25 26  1  0
 26 27  2  0
 21 28  1  0
 28 29  1  0
 29 30  2  0
 30 31  1  0
 31 32  2  0
 32 33  1  0
 33 34  2  0
 34 35  1  0
 35 36  1  0
 36 37  2  0
 37 38  1  0
 38 39  2  0
 39 40  1  0
 39 41  1  0
 41 42  2  0
 42 43  1  0
 34 44  1  0
 44 45  2  0
 44 46  1  0
 46 47  1  0
 46 48  1  0
 48 49  2  0
 27 23  1  0
 49 29  1  0
 48 32  1  0
 42 36  1  0
M  CHG  1  19   1
M  END

