
     RDKit          3D

 53 55  0  0  0  0  0  0  0  0999 V2000
   -5.9655    2.8538   -1.8032 C   0  0  0  0  0  0  0  0  0  0  0  0
   -5.0656    1.7007   -1.8523 C   0  0  0  0  0  0  0  0  0  0  0  0
   -5.6201    0.4419   -2.4161 C   0  0  0  0  0  0  0  0  0  0  0  0
   -4.0816    1.5578   -0.7584 C   0  0  0  0  0  0  0  0  0  0  0  0
   -3.2005    0.3381   -0.8862 C   0  0  0  0  0  0  0  0  0  0  0  0
   -2.2563    0.2368    0.2357 C   0  0  0  0  0  0  0  0  0  0  0  0
   -2.2783    1.1903    1.0919 O   0  0  0  0  0  0  0  0  0  0  0  0
   -1.3439   -0.7909    0.4565 N   0  0  0  0  0  0  0  0  0  0  0  0
   -0.4928   -0.5511    1.7877 C   0  0  1  0  0  0  0  0  0  0  0  0
   -0.0647   -2.1510    1.8546 C   0  0  0  0  0  0  0  0  0  0  0  0
    0.7058   -2.4166    0.5723 C   0  0  0  0  0  0  0  0  0  0  0  0
    1.1133   -3.7991    0.5335 C   0  0  0  0  0  0  0  0  0  0  0  0
    2.4122   -4.1945    0.2673 O   0  0  0  0  0  1  0  0  0  0  0  0
    0.2591   -4.7074    0.7510 O   0  0  0  0  0  0  0  0  0  0  0  0
    0.7780   -0.0055    1.0496 C   0  0  0  0  0  0  0  0  0  0  0  0
    1.0844   -0.1221   -0.0963 O   0  0  0  0  0  0  0  0  0  0  0  0
    1.6326    0.7176    1.9268 N   0  0  0  0  0  0  0  0  0  0  0  0
    2.8977    1.3179    1.4257 C   0  0  0  0  0  0  0  0  0  0  0  0
    2.4053    2.2564    0.3205 C   0  0  0  0  0  0  0  0  0  0  0  0
    3.6084    2.9467   -0.2905 C   0  0  0  0  0  0  0  0  0  0  0  0
    4.5856    1.9566   -0.8455 C   0  0  0  0  0  0  0  0  0  0  0  0
    3.9418    1.0901   -1.9064 C   0  0  0  0  0  0  0  0  0  0  0  0
    4.9454    0.1334   -2.4132 N   0  0  0  0  0  4  0  0  0  0  0  0
    4.8336   -1.5697    1.6518 C   0  0  0  0  0  0  0  0  0  0  0  0
    5.3263   -0.7071    0.3325 C   0  0  2  0  0  0  0  0  0  0  0  0
    4.5528    0.6651    0.7885 C   0  0  0  0  0  0  0  0  0  0  0  0
    4.8569    1.6246   -0.2787 N   0  0  0  0  0  0  0  0  0  0  0  0
    4.2157    1.8754   -1.3806 N   0  0  0  0  0  0  0  0  0  0  0  0
    4.8406    2.8346   -2.0811 C   0  0  0  0  0  0  0  0  0  0  0  0
    5.9191    3.1738   -1.3495 N   0  0  0  0  0  0  0  0  0  0  0  0
    5.9080    2.4230   -0.2554 N   0  0  0  0  0  0  0  0  0  0  0  0
    4.1865   -1.2300   -0.5896 N   0  0  0  0  0  0  0  0  0  0  0  0
    2.8797   -1.0867   -0.0978 C   0  0  0  0  0  0  0  0  0  0  0  0
    2.6674   -0.5331    1.1017 N   0  0  0  0  0  0  0  0  0  0  0  0
    1.4328   -0.3773    1.6093 C   0  0  0  0  0  0  0  0  0  0  0  0
    0.3131   -0.7833    0.9141 C   0  0  0  0  0  0  0  0  0  0  0  0
   -0.9698   -0.6294    1.4246 C   0  0  0  0  0  0  0  0  0  0  0  0
   -2.0524   -1.0509    0.6915 C   0  0  0  0  0  0  0  0  0  0  0  0
   -3.3068   -0.8915    1.2096 O   0  0  0  0  0  0  0  0  0  0  0  0
   -4.3210   -0.1573    0.6411 C   0  0  0  0  0  0  0  0  0  0  0  0
   -5.4889   -0.8458    0.3212 C   0  0  0  0  0  0  0  0  0  0  0  0
   -6.5269   -0.1251   -0.2540 C   0  0  0  0  0  0  0  0  0  0  0  0
   -6.3890    1.2129   -0.4906 C   0  0  0  0  0  0  0  0  0  0  0  0
   -7.3763    1.9267   -1.0439 F   0  0  0  0  0  0  0  0  0  0  0  0
   -5.2115    1.8636   -0.1586 C   0  0  0  0  0  0  0  0  0  0  0  0
   -4.1552    1.1799    0.4159 C   0  0  0  0  0  0  0  0  0  0  0  0
   -3.0103    1.7937    0.7429 F   0  0  0  0  0  0  0  0  0  0  0  0
   -1.7798   -1.6162   -0.5414 C   0  0  0  0  0  0  0  0  0  0  0  0
   -2.7864   -2.0060   -1.2186 O   0  0  0  0  0  0  0  0  0  0  0  0
   -0.5445   -1.7572   -1.0179 N   0  0  0  0  0  0  0  0  0  0  0  0
   -0.3330   -2.3586   -2.3182 C   0  0  0  0  0  0  0  0  0  0  0  0
    0.5310   -1.3543   -0.3228 C   0  0  0  0  0  0  0  0  0  0  0  0
    1.7883   -1.4937   -0.7991 N   0  0  0  0  0  0  0  0  0  0  0  0
  1  2  1  0
  2  3  1  0
  2  4  1  0
  4  5  1  0
  5  6  1  0
  6  7  2  0
  6  8  1  0
  8  9  1  0
  9 10  1  6
 10 11  1  0
 11 12  1  0
 12 13  1  0
 12 14  2  0
  9 15  1  0
 15 16  2  0
 15 17  1  0
 17 18  1  0
 18 19  1  0
 19 20  1  0
 20 21  1  0
 21 22  1  0
 22 23  1  0
 25 24  1  1
 25 26  1  0
 26 27  1  0
 27 28  1  0
 28 29  2  0
 29 30  1  0
 30 31  2  0
 25 32  1  0
 32 33  1  0
 33 34  2  0
 34 35  1  0
 35 36  2  0
 36 37  1  0
 37 38  2  0
 38 39  1  0
 39 40  1  0
 40 41  2  0
 41 42  1  0
 42 43  2  0
 43 44  1  0
 43 45  1  0
 45 46  2  0
 46 47  1  0
 38 48  1  0
 48 49  2  0
 48 50  1  0
 50 51  1  0
 50 52  1  0
 52 53  2  0
 31 27  1  0
 53 33  1  0
 52 36  1  0
 46 40  1  0
M  CHG  1  23   1
M  RAD  1  13   2
M  END

