
     RDKit          3D

 49 51  0  0  0  0  0  0  0  0999 V2000
    0.2610   -3.4429    2.1523 C   0  0  0  0  0  0  0  0  0  0  0  0
    0.1044   -1.9859    1.8188 C   0  0  0  0  0  0  0  0  0  0  0  0
    0.1596   -2.1763    1.6005 O   0  0  0  0  0  0  0  0  0  0  0  0
   -0.0364   -0.6552    1.4986 N   0  0  0  0  0  0  0  0  0  0  0  0
    0.0862   -0.3026   -0.0069 C   0  0  1  0  0  0  0  0  0  0  0  0
   -1.1269    0.8138    0.1492 C   0  0  0  0  0  0  0  0  0  0  0  0
   -2.2527   -0.1316    0.6307 C   0  0  0  0  0  0  0  0  0  0  0  0
   -2.4562   -1.1235   -0.4989 C   0  0  0  0  0  0  0  0  0  0  0  0
   -2.8695   -0.3475   -1.7075 N   0  0  0  0  0  0  0  0  0  0  0  0
   -4.0358    0.4608   -1.6095 C   0  0  0  0  0  0  0  0  0  0  0  0
   -4.4827    1.2404   -2.7390 N   0  0  0  0  0  0  0  0  0  0  0  0
   -4.6698    0.4792   -0.4924 N   0  0  0  0  0  4  0  0  0  0  0  0
    1.2509    0.7139    0.1012 C   0  0  0  0  0  0  0  0  0  0  0  0
    1.1773    1.4740    1.0594 O   0  0  0  0  0  0  0  0  0  0  0  0
    2.2765    0.7684   -0.7814 N   0  0  0  0  0  0  0  0  0  0  0  0
    3.3970    1.4084   -1.0609 C   0  0  0  0  0  0  0  0  0  0  0  0
    4.6378    1.4291   -0.0519 C   0  0  1  0  0  0  0  0  0  0  0  0
    3.7576    1.4714    1.3086 C   0  0  0  0  0  0  0  0  0  0  0  0
    4.8217   -0.0938    0.0075 O   0  0  0  0  0  0  0  0  0  0  0  0
    5.5045   -1.9970    1.2850 C   0  0  0  0  0  0  0  0  0  0  0  0
    4.2848   -1.3042    0.3607 C   0  0  2  0  0  0  0  0  0  0  0  0
    4.3574    0.1953    1.0986 C   0  0  0  0  0  0  0  0  0  0  0  0
    5.6362    0.7129    0.9171 N   0  0  0  0  0  0  0  0  0  0  0  0
    6.0554    1.4656   -0.0842 N   0  0  0  0  0  0  0  0  0  0  0  0
    7.3623    1.7573    0.1134 C   0  0  0  0  0  0  0  0  0  0  0  0
    7.7278    1.1662    1.2551 N   0  0  0  0  0  0  0  0  0  0  0  0
    6.6678    0.5407    1.7230 N   0  0  0  0  0  0  0  0  0  0  0  0
    3.1583   -1.8099    1.3587 N   0  0  0  0  0  0  0  0  0  0  0  0
    1.8480   -1.4248    0.9464 C   0  0  0  0  0  0  0  0  0  0  0  0
    0.8145   -1.7984    1.7159 N   0  0  0  0  0  0  0  0  0  0  0  0
   -0.4535   -1.4753    1.3973 C   0  0  0  0  0  0  0  0  0  0  0  0
   -0.6973   -0.7388    0.2462 C   0  0  0  0  0  0  0  0  0  0  0  0
   -1.9763   -0.3780   -0.1318 C   0  0  0  0  0  0  0  0  0  0  0  0
   -2.1656    0.3628   -1.2985 C   0  0  0  0  0  0  0  0  0  0  0  0
   -3.4266    0.7428   -1.7103 O   0  0  0  0  0  0  0  0  0  0  0  0
   -4.5567    0.3898   -0.9585 C   0  0  0  0  0  0  0  0  0  0  0  0
   -5.5475   -0.3791   -1.5244 C   0  0  0  0  0  0  0  0  0  0  0  0
   -6.6742   -0.7357   -0.7873 C   0  0  0  0  0  0  0  0  0  0  0  0
   -6.8158   -0.3299    0.5067 C   0  0  0  0  0  0  0  0  0  0  0  0
   -7.9263   -0.6946    1.1979 F   0  0  0  0  0  0  0  0  0  0  0  0
   -5.8428    0.4372    1.0944 C   0  0  0  0  0  0  0  0  0  0  0  0
   -4.7140    0.7922    0.3501 C   0  0  0  0  0  0  0  0  0  0  0  0
   -3.7694    1.5449    0.9418 F   0  0  0  0  0  0  0  0  0  0  0  0
   -1.0779    0.7236   -2.0560 C   0  0  0  0  0  0  0  0  0  0  0  0
   -1.2044    1.3835   -3.1022 O   0  0  0  0  0  0  0  0  0  0  0  0
    0.1657    0.3578   -1.6645 N   0  0  0  0  0  0  0  0  0  0  0  0
    1.3052    0.7435   -2.4705 C   0  0  0  0  0  0  0  0  0  0  0  0
    0.3604   -0.3549   -0.5439 C   0  0  0  0  0  0  0  0  0  0  0  0
    1.5998   -0.7054   -0.1763 N   0  0  0  0  0  0  0  0  0  0  0  0
  1  2  1  0
  2  3  2  0
  2  4  1  0
  4  5  1  0
  5  6  1  1
  6  7  1  0
  7  8  1  0
  8  9  1  0
  9 10  1  0
 10 11  1  0
 10 12  2  0
  5 13  1  0
 13 14  2  0
 13 15  1  0
 15 16  1  0
 16 17  1  0
 17 18  1  1
 17 19  1  0
 21 20  1  1
 21 22  1  0
 22 23  1  0
 23 24  1  0
 24 25  2  0
 25 26  1  0
 26 27  2  0
 21 28  1  0
 28 29  1  0
 29 30  2  0
 30 31  1  0
 31 32  2  0
 32 33  1  0
 33 34  2  0
 34 35  1  0
 35 36  1  0
 36 37  2  0
 37 38  1  0
 38 39  2  0
 39 40  1  0
 39 41  1  0
 41 42  2  0
 42 43  1  0
 34 44  1  0
 44 45  2  0
 44 46  1  0
 46 47  1  0
 46 48  1  0
 48 49  2  0
 27 23  1  0
 49 29  1  0
 48 32  1  0
 42 36  1  0
M  CHG  1  12   1
M  END

