
     RDKit          3D

 54 58  0  0  0  0  0  0  0  0999 V2000
    3.6229    1.2436    2.1103 C   0  0  0  0  0  0  0  0  0  0  0  0
    4.1174   -0.3093    2.4210 C   0  0  2  0  0  0  0  0  0  0  0  0
    5.7057   -0.1148    2.0151 C   0  0  0  0  0  0  0  0  0  0  0  0
    5.8207    0.2864    0.6812 N   0  0  0  0  0  0  0  0  0  0  0  0
    5.8328    1.5595    0.2833 N   0  0  0  0  0  0  0  0  0  0  0  0
    5.9524    1.6441   -1.0338 C   0  0  0  0  0  0  0  0  0  0  0  0
    6.0147    0.3648   -1.4430 N   0  0  0  0  0  0  0  0  0  0  0  0
    5.9350   -0.4526   -0.4056 N   0  0  0  0  0  0  0  0  0  0  0  0
    3.6957   -0.8404    0.9986 N   0  0  0  0  0  0  0  0  0  0  0  0
    2.2885   -0.6557    0.8082 C   0  0  0  0  0  0  0  0  0  0  0  0
    1.4638   -0.1189    1.6945 N   0  0  0  0  0  0  0  0  0  0  0  0
    0.1468    0.0653    1.5429 C   0  0  0  0  0  0  0  0  0  0  0  0
   -0.4263   -0.3377    0.3520 C   0  0  0  0  0  0  0  0  0  0  0  0
   -1.7665   -0.2014    0.0785 C   0  0  0  0  0  0  0  0  0  0  0  0
   -2.2140   -0.6443   -1.1498 C   0  0  0  0  0  0  0  0  0  0  0  0
   -3.5669   -0.5434   -1.5113 O   0  0  0  0  0  0  0  0  0  0  0  0
   -4.4653    0.0126   -0.6130 C   0  0  0  0  0  0  0  0  0  0  0  0
   -5.5160   -0.7472   -0.1743 C   0  0  0  0  0  0  0  0  0  0  0  0
   -6.4040   -0.1734    0.7240 C   0  0  0  0  0  0  0  0  0  0  0  0
   -6.2344    1.1125    1.1581 C   0  0  0  0  0  0  0  0  0  0  0  0
   -7.1077    1.6921    2.0482 F   0  0  0  0  0  0  0  0  0  0  0  0
   -5.1721    1.8469    0.6998 C   0  0  0  0  0  0  0  0  0  0  0  0
   -4.2687    1.3206   -0.1892 C   0  0  0  0  0  0  0  0  0  0  0  0
   -3.2110    1.9926   -0.6711 F   0  0  0  0  0  0  0  0  0  0  0  0
   -1.3612   -1.2045   -2.0781 C   0  0  0  0  0  0  0  0  0  0  0  0
   -1.7936   -1.6029   -3.1961 O   0  0  0  0  0  0  0  0  0  0  0  0
   -0.0682   -1.3208   -1.7790 N   0  0  0  0  0  0  0  0  0  0  0  0
    0.8334   -1.9173   -2.7702 C   0  0  0  0  0  0  0  0  0  0  0  0
    0.4131   -0.8986   -0.5839 C   0  0  0  0  0  0  0  0  0  0  0  0
    1.7331   -1.0576   -0.3723 N   0  0  0  0  0  0  0  0  0  0  0  0
   -6.1497    1.6633    0.6913 O   0  0  0  0  0  1  0  0  0  0  0  0
   -5.2997    0.5657    0.6606 C   0  0  0  0  0  0  0  0  0  0  0  0
   -5.5456   -0.2897   -0.2217 O   0  0  0  0  0  0  0  0  0  0  0  0
   -4.1761    0.3623    1.5676 C   0  0  0  0  0  0  0  0  0  0  0  0
   -2.8596    0.8575    1.1342 C   0  0  0  0  0  0  0  0  0  0  0  0
   -2.3298    0.2590   -0.1171 C   0  0  0  0  0  0  0  0  0  0  0  0
   -3.0089   -0.6616   -0.6065 O   0  0  0  0  0  0  0  0  0  0  0  0
   -1.1325    0.7185   -0.6961 N   0  0  0  0  0  0  0  0  0  0  0  0
   -0.2137    1.7028   -0.3595 C   0  0  0  0  0  0  0  0  0  0  0  0
    0.3318    2.1779   -1.6781 C   0  0  0  0  0  0  0  0  0  0  0  0
    0.6061    0.8751   -2.3123 C   0  0  0  0  0  0  0  0  0  0  0  0
   -0.7265   -0.0110   -1.9891 C   0  0  1  0  0  0  0  0  0  0  0  0
    0.0114   -1.2173   -1.2899 C   0  0  0  0  0  0  0  0  0  0  0  0
    0.5286   -2.0155   -2.0984 O   0  0  0  0  0  0  0  0  0  0  0  0
    0.1099   -1.4249    0.0502 N   0  0  0  0  0  0  0  0  0  0  0  0
    0.7894   -2.5385    0.6975 C   0  0  0  0  0  0  0  0  0  0  0  0
    2.2155   -2.5348    0.3265 C   0  0  0  0  0  0  0  0  0  0  0  0
    2.9677   -1.3214    0.7042 C   0  0  0  0  0  0  0  0  0  0  0  0
    3.0036   -0.3035   -0.2274 C   0  0  0  0  0  0  0  0  0  0  0  0
    3.6608    0.8954   -0.0297 C   0  0  0  0  0  0  0  0  0  0  0  0
    4.3140    1.0726    1.1702 C   0  0  0  0  0  0  0  0  0  0  0  0
    5.0020    2.2455    1.4590 O   0  0  0  0  0  0  0  0  0  0  0  0
    4.2830    0.0550    2.1115 C   0  0  0  0  0  0  0  0  0  0  0  0
    3.6182   -1.1325    1.8865 C   0  0  0  0  0  0  0  0  0  0  0  0
  2  1  1  6
  2  3  1  0
  3  4  1  0
  4  5  1  0
  5  6  2  0
  6  7  1  0
  7  8  2  0
  2  9  1  0
  9 10  1  0
 10 11  2  0
 11 12  1  0
 12 13  2  0
 13 14  1  0
 14 15  2  0
 15 16  1  0
 16 17  1  0
 17 18  2  0
 18 19  1  0
 19 20  2  0
 20 21  1  0
 20 22  1  0
 22 23  2  0
 23 24  1  0
 15 25  1  0
 25 26  2  0
 25 27  1  0
 27 28  1  0
 27 29  1  0
 29 30  2  0
 31 32  1  0
 32 33  2  0
 32 34  1  0
 34 35  1  0
 35 36  1  0
 36 37  2  0
 36 38  1  0
 38 39  1  0
 39 40  1  0
 40 41  1  0
 41 42  1  0
 42 43  1  1
 43 44  2  0
 43 45  1  0
 45 46  1  0
 46 47  1  0
 47 48  1  0
 48 49  2  0
 49 50  1  0
 50 51  2  0
 51 52  1  0
 51 53  1  0
 53 54  2  0
  8  4  1  0
 30 10  1  0
 42 38  1  0
 54 48  1  0
 29 13  1  0
 23 17  1  0
M  RAD  1  31   2
M  END

