
     RDKit          3D

 57 61  0  0  0  0  0  0  0  0999 V2000
    6.3832    2.9570   -0.5163 C   0  0  0  0  0  0  0  0  0  0  0  0
    5.4985    1.8418   -0.0778 C   0  0  0  0  0  0  0  0  0  0  0  0
    6.0950    0.5371    0.2032 C   0  0  0  0  0  0  0  0  0  0  0  0
    4.1363    2.1430    0.2309 C   0  0  0  0  0  0  0  0  0  0  0  0
    3.2685    1.2188    0.6284 N   0  0  0  0  0  0  0  0  0  0  0  0
    2.6588    0.0493    0.2595 C   0  0  0  0  0  0  0  0  0  0  0  0
    2.8397   -0.5258   -0.7914 O   0  0  0  0  0  0  0  0  0  0  0  0
    1.6142   -0.5841    1.2764 C   0  0  2  0  0  0  0  0  0  0  0  0
    0.7706   -1.4309    0.1934 C   0  0  0  0  0  0  0  0  0  0  0  0
    1.7506   -2.4429   -0.3408 C   0  0  0  0  0  0  0  0  0  0  0  0
    2.1018   -3.3405    0.8278 C   0  0  0  0  0  0  0  0  0  0  0  0
    2.9817   -4.3809    0.6886 O   0  0  0  0  0  1  0  0  0  0  0  0
    1.5765   -3.1396    1.9665 O   0  0  0  0  0  0  0  0  0  0  0  0
    0.6608    0.6683    1.1937 N   0  0  0  0  0  0  0  0  0  0  0  0
    0.1391    1.1233    0.0098 C   0  0  0  0  0  0  0  0  0  0  0  0
    0.3643    0.5677   -1.0636 O   0  0  0  0  0  0  0  0  0  0  0  0
   -0.7499    2.3548    0.1015 C   0  0  0  0  0  0  0  0  0  0  0  0
   -2.1328    1.9692    0.4187 C   0  0  0  0  0  0  0  0  0  0  0  0
   -2.7424    0.9538   -0.4365 C   0  0  0  0  0  0  0  0  0  0  0  0
   -2.1766    0.1651   -1.4153 C   0  0  0  0  0  0  0  0  0  0  0  0
   -3.1338   -0.6918   -1.8742 N   0  0  0  0  0  0  0  0  0  0  0  0
   -4.2865   -0.4663   -1.2238 C   0  0  0  0  0  0  0  0  0  0  0  0
   -5.5664   -1.0255   -1.2944 C   0  0  0  0  0  0  0  0  0  0  0  0
   -6.5850   -0.5588   -0.4904 C   0  0  0  0  0  0  0  0  0  0  0  0
   -6.3283    0.4565    0.3934 C   0  0  0  0  0  0  0  0  0  0  0  0
   -5.0606    1.0398    0.5051 C   0  0  0  0  0  0  0  0  0  0  0  0
   -4.0774    0.5414   -0.3317 C   0  0  0  0  0  0  0  0  0  0  0  0
    3.9664    1.7667    1.1401 C   0  0  0  0  0  0  0  0  0  0  0  0
    4.3942    0.4206    1.9835 C   0  0  2  0  0  0  0  0  0  0  0  0
    5.9169    0.2624    1.4053 C   0  0  0  0  0  0  0  0  0  0  0  0
    5.9420    0.0978    0.0245 N   0  0  0  0  0  0  0  0  0  0  0  0
    6.0188    1.0738   -0.8638 N   0  0  0  0  0  0  0  0  0  0  0  0
    6.0210    0.5602   -2.1134 C   0  0  0  0  0  0  0  0  0  0  0  0
    5.9422   -0.7706   -1.9441 N   0  0  0  0  0  0  0  0  0  0  0  0
    5.8943   -1.0459   -0.6353 N   0  0  0  0  0  0  0  0  0  0  0  0
    3.7717   -0.5563    0.9347 N   0  0  0  0  0  0  0  0  0  0  0  0
    2.3864   -0.3361    0.8086 C   0  0  0  0  0  0  0  0  0  0  0  0
    1.7065    0.5829    1.4948 N   0  0  0  0  0  0  0  0  0  0  0  0
    0.3774    0.7602    1.3426 C   0  0  0  0  0  0  0  0  0  0  0  0
   -0.2578   -0.0567    0.4384 C   0  0  0  0  0  0  0  0  0  0  0  0
   -1.6211    0.0528    0.2155 C   0  0  0  0  0  0  0  0  0  0  0  0
   -2.2402   -0.7758   -0.6958 C   0  0  0  0  0  0  0  0  0  0  0  0
   -3.6031   -0.6845   -0.9353 O   0  0  0  0  0  0  0  0  0  0  0  0
   -4.3419    0.2611   -0.2386 C   0  0  0  0  0  0  0  0  0  0  0  0
   -3.7386    1.1124    0.6899 C   0  0  0  0  0  0  0  0  0  0  0  0
   -4.5049    2.0313    1.3554 C   0  0  0  0  0  0  0  0  0  0  0  0
   -5.8569    2.0979    1.0957 C   0  0  0  0  0  0  0  0  0  0  0  0
   -6.5632    3.0286    1.7863 F   0  0  0  0  0  0  0  0  0  0  0  0
   -6.4421    1.2556    0.1799 C   0  0  0  0  0  0  0  0  0  0  0  0
   -5.6868    0.3235   -0.5005 C   0  0  0  0  0  0  0  0  0  0  0  0
   -6.2758   -0.4884   -1.3892 F   0  0  0  0  0  0  0  0  0  0  0  0
   -1.5418   -1.7272   -1.4074 C   0  0  0  0  0  0  0  0  0  0  0  0
   -2.1262   -2.4844   -2.2446 O   0  0  0  0  0  0  0  0  0  0  0  0
   -0.2223   -1.8205   -1.1800 N   0  0  0  0  0  0  0  0  0  0  0  0
    0.5292   -2.8072   -1.9115 C   0  0  0  0  0  0  0  0  0  0  0  0
    0.4193   -1.0148   -0.2845 C   0  0  0  0  0  0  0  0  0  0  0  0
    1.7363   -1.1194   -0.0681 N   0  0  0  0  0  0  0  0  0  0  0  0
  1  2  1  0
  2  3  1  0
  2  4  1  0
  4  5  1  0
  5  6  1  0
  6  7  2  0
  6  8  1  0
  8  9  1  6
  9 10  1  0
 10 11  1  0
 11 12  1  0
 11 13  2  0
  8 14  1  0
 14 15  1  0
 15 16  2  0
 15 17  1  0
 17 18  1  0
 18 19  1  0
 19 20  2  0
 20 21  1  0
 21 22  1  0
 22 23  2  0
 23 24  1  0
 24 25  2  0
 25 26  1  0
 26 27  2  0
 29 28  1  6
 29 30  1  0
 30 31  1  0
 31 32  1  0
 32 33  2  0
 33 34  1  0
 34 35  2  0
 29 36  1  0
 36 37  1  0
 37 38  2  0
 38 39  1  0
 39 40  2  0
 40 41  1  0
 41 42  2  0
 42 43  1  0
 43 44  1  0
 44 45  2  0
 45 46  1  0
 46 47  2  0
 47 48  1  0
 47 49  1  0
 49 50  2  0
 50 51  1  0
 42 52  1  0
 52 53  2  0
 52 54  1  0
 54 55  1  0
 54 56  1  0
 56 57  2  0
 27 19  1  0
 35 31  1  0
 57 37  1  0
 27 22  1  0
 56 40  1  0
 50 44  1  0
M  RAD  1  12   2
M  END

