
     RDKit          3D

 54 57  0  0  0  0  0  0  0  0999 V2000
   -1.8705   -3.8779   -1.6048 C   0  0  0  0  0  0  0  0  0  0  0  0
   -0.5387   -3.5681   -0.3860 S   0  0  0  0  0  0  0  0  0  0  0  0
    0.7156   -2.4594   -1.0438 C   0  0  0  0  0  0  0  0  0  0  0  0
    0.1952   -1.0666   -1.2785 C   0  0  0  0  0  0  0  0  0  0  0  0
   -0.2945   -0.5357    0.2100 C   0  0  2  0  0  0  0  0  0  0  0  0
   -0.7567    0.8408   -0.3210 N   0  0  0  0  0  0  0  0  0  0  0  0
   -2.0066    1.3128    0.1046 C   0  0  0  0  0  0  0  0  0  0  0  0
   -2.6303    0.5303    0.9038 O   0  0  0  0  0  0  0  0  0  0  0  0
   -2.5794    2.6172   -0.3273 C   0  0  0  0  0  0  0  0  0  0  0  0
   -3.9846    2.7736    0.1711 C   0  0  0  0  0  0  0  0  0  0  0  0
   -4.8260    1.7118   -0.4089 C   0  0  0  0  0  0  0  0  0  0  0  0
   -5.1623    0.4622    0.0352 C   0  0  0  0  0  0  0  0  0  0  0  0
   -5.9599   -0.1300   -0.8645 N   0  0  0  0  0  0  0  0  0  0  0  0
   -6.1087    0.7712   -1.8673 C   0  0  0  0  0  0  0  0  0  0  0  0
   -5.4320    1.8918   -1.6125 N   0  0  0  0  0  0  0  0  0  0  0  0
    1.1424   -0.0324    0.6401 C   0  0  0  0  0  0  0  0  0  0  0  0
    1.2580    1.1175    1.1024 O   0  0  0  0  0  0  0  0  0  0  0  0
    2.2597   -0.8417    0.5072 N   0  0  0  0  0  0  0  0  0  0  0  0
    3.5323   -0.2752    0.9245 C   0  0  0  0  0  0  0  0  0  0  0  0
    4.5686   -1.3731    0.6432 C   0  0  0  0  0  0  0  0  0  0  0  0
    5.9521   -0.8968    1.0360 C   0  0  0  0  0  0  0  0  0  0  0  0
    6.2809    0.3555    0.2187 C   0  0  0  0  0  0  0  0  0  0  0  0
    7.6413    0.8579    0.5857 C   0  0  0  0  0  0  0  0  0  0  0  0
    8.6043   -0.1858    0.2970 N   0  0  0  0  0  4  0  0  0  0  0  0
   -4.5545   -0.3615   -1.4335 C   0  0  0  0  0  0  0  0  0  0  0  0
   -4.9910   -1.6407   -0.4794 C   0  0  2  0  0  0  0  0  0  0  0  0
   -4.7082   -0.8456    0.9365 C   0  0  0  0  0  0  0  0  0  0  0  0
   -5.5809    0.2897    0.9184 N   0  0  0  0  0  0  0  0  0  0  0  0
   -5.2499    1.4692    0.4198 N   0  0  0  0  0  0  0  0  0  0  0  0
   -6.2540    2.3269    0.5398 C   0  0  0  0  0  0  0  0  0  0  0  0
   -7.2540    1.6602    1.1368 N   0  0  0  0  0  0  0  0  0  0  0  0
   -6.8212    0.4263    1.3564 N   0  0  0  0  0  0  0  0  0  0  0  0
   -3.5686   -2.3033   -0.5415 N   0  0  0  0  0  0  0  0  0  0  0  0
   -2.4713   -1.5203   -0.1189 C   0  0  0  0  0  0  0  0  0  0  0  0
   -2.5595   -0.2583    0.3287 N   0  0  0  0  0  0  0  0  0  0  0  0
   -1.4695    0.4478    0.7225 C   0  0  0  0  0  0  0  0  0  0  0  0
   -0.2268   -0.1422    0.6643 C   0  0  0  0  0  0  0  0  0  0  0  0
    0.9165    0.5451    1.0578 C   0  0  0  0  0  0  0  0  0  0  0  0
    2.1501   -0.0741    0.9879 C   0  0  0  0  0  0  0  0  0  0  0  0
    3.2465    0.6583    1.3920 O   0  0  0  0  0  0  0  0  0  0  0  0
    4.3227    0.9612    0.5685 C   0  0  0  0  0  0  0  0  0  0  0  0
    5.6024    0.5490    0.8791 C   0  0  0  0  0  0  0  0  0  0  0  0
    6.6895    0.8320    0.0857 C   0  0  0  0  0  0  0  0  0  0  0  0
    6.5397    1.5561   -1.0794 C   0  0  0  0  0  0  0  0  0  0  0  0
    7.5983    1.8440   -1.8726 F   0  0  0  0  0  0  0  0  0  0  0  0
    5.2623    1.9729   -1.3985 C   0  0  0  0  0  0  0  0  0  0  0  0
    4.1787    1.6855   -0.5987 C   0  0  0  0  0  0  0  0  0  0  0  0
    2.9159    2.1000   -0.9182 F   0  0  0  0  0  0  0  0  0  0  0  0
    2.2025   -1.3567    0.5283 C   0  0  0  0  0  0  0  0  0  0  0  0
    3.3032   -1.9338    0.4569 O   0  0  0  0  0  0  0  0  0  0  0  0
    1.0722   -2.0080    0.1494 N   0  0  0  0  0  0  0  0  0  0  0  0
    1.1109   -3.3802   -0.3445 C   0  0  0  0  0  0  0  0  0  0  0  0
   -0.1385   -1.4258    0.2088 C   0  0  0  0  0  0  0  0  0  0  0  0
   -1.2634   -2.0737   -0.1681 N   0  0  0  0  0  0  0  0  0  0  0  0
  1  2  1  0
  2  3  1  0
  3  4  1  0
  5  4  1  6
  5  6  1  0
  6  7  1  0
  7  8  2  0
  7  9  1  0
  9 10  1  0
 10 11  1  0
 11 12  2  0
 12 13  1  0
 13 14  1  0
 14 15  2  0
  5 16  1  0
 16 17  2  0
 16 18  1  0
 18 19  1  0
 19 20  1  0
 20 21  1  0
 21 22  1  0
 22 23  1  0
 23 24  1  0
 26 25  1  6
 26 27  1  0
 27 28  1  0
 28 29  1  0
 29 30  2  0
 30 31  1  0
 31 32  2  0
 26 33  1  0
 33 34  1  0
 34 35  2  0
 35 36  1  0
 36 37  2  0
 37 38  1  0
 38 39  2  0
 39 40  1  0
 40 41  1  0
 41 42  2  0
 42 43  1  0
 43 44  2  0
 44 45  1  0
 44 46  1  0
 46 47  2  0
 47 48  1  0
 39 49  1  0
 49 50  2  0
 49 51  1  0
 51 52  1  0
 51 53  1  0
 53 54  2  0
 15 11  1  0
 32 28  1  0
 54 34  1  0
 53 37  1  0
 47 41  1  0
M  CHG  1  24   1
M  END

