
     RDKit          3D

 55 59  0  0  0  0  0  0  0  0999 V2000
   -2.7548    3.6331    0.7226 C   0  0  0  0  0  0  0  0  0  0  0  0
   -1.9358    2.4239    1.1718 C   0  0  0  0  0  0  0  0  0  0  0  0
   -1.9526    1.4448    0.1004 N   0  0  0  0  0  0  0  0  0  0  0  0
   -1.2221    0.2544    0.3821 C   0  0  0  0  0  0  0  0  0  0  0  0
   -0.6539    0.0949    1.4337 O   0  0  0  0  0  0  0  0  0  0  0  0
   -1.2077   -0.8310   -0.7865 C   0  0  2  0  0  0  0  0  0  0  0  0
   -2.4881   -1.7049   -0.2656 C   0  0  0  0  0  0  0  0  0  0  0  0
   -3.6485   -0.7902   -0.2546 C   0  0  0  0  0  0  0  0  0  0  0  0
   -4.0682   -0.1159    0.8704 C   0  0  0  0  0  0  0  0  0  0  0  0
   -5.1513    0.7299    0.8584 C   0  0  0  0  0  0  0  0  0  0  0  0
   -5.8744    0.9447   -0.2907 C   0  0  0  0  0  0  0  0  0  0  0  0
   -5.4760    0.2877   -1.4143 C   0  0  0  0  0  0  0  0  0  0  0  0
   -4.3957   -0.5595   -1.4140 C   0  0  0  0  0  0  0  0  0  0  0  0
   -0.1652   -1.8136   -0.0849 N   0  0  0  0  0  0  0  0  0  0  0  0
    1.1424   -1.7647   -0.6472 C   0  0  0  0  0  0  0  0  0  0  0  0
    1.3649   -0.9973   -1.5979 O   0  0  0  0  0  0  0  0  0  0  0  0
    2.1592   -2.6408   -0.0555 C   0  0  0  0  0  0  0  0  0  0  0  0
    3.4969   -2.4345   -0.6661 C   0  0  0  0  0  0  0  0  0  0  0  0
    3.9954   -1.0701   -0.4625 C   0  0  0  0  0  0  0  0  0  0  0  0
    4.7096   -0.8268    0.7152 C   0  0  0  0  0  0  0  0  0  0  0  0
    5.2453    0.3947    1.0283 C   0  0  0  0  0  0  0  0  0  0  0  0
    5.0719    1.4403    0.1352 C   0  0  0  0  0  0  0  0  0  0  0  0
    5.5970    2.7120    0.4009 O   0  0  0  0  0  0  0  0  0  0  0  0
    4.3685    1.2174   -1.0339 C   0  0  0  0  0  0  0  0  0  0  0  0
    3.8431   -0.0285   -1.3143 C   0  0  0  0  0  0  0  0  0  0  0  0
    5.9623   -1.5929    0.2871 C   0  0  0  0  0  0  0  0  0  0  0  0
    4.3916   -1.2683   -0.1882 C   0  0  2  0  0  0  0  0  0  0  0  0
    4.4931    0.3075    0.3460 C   0  0  0  0  0  0  0  0  0  0  0  0
    5.5970    0.8488   -0.4549 N   0  0  0  0  0  0  0  0  0  0  0  0
    5.4951    1.4354   -1.6306 N   0  0  0  0  0  0  0  0  0  0  0  0
    6.7537    1.7679   -1.9851 C   0  0  0  0  0  0  0  0  0  0  0  0
    7.5805    1.3727   -1.0133 N   0  0  0  0  0  0  0  0  0  0  0  0
    6.8520    0.8031   -0.0677 N   0  0  0  0  0  0  0  0  0  0  0  0
    3.7949   -1.7767    1.1861 N   0  0  0  0  0  0  0  0  0  0  0  0
    2.3824   -1.6778    1.2337 C   0  0  0  0  0  0  0  0  0  0  0  0
    1.7056   -2.0697    2.3378 N   0  0  0  0  0  0  0  0  0  0  0  0
    0.3692   -1.9918    2.4216 C   0  0  0  0  0  0  0  0  0  0  0  0
   -0.3514   -1.5067    1.3763 C   0  0  0  0  0  0  0  0  0  0  0  0
   -1.7341   -1.3928    1.3811 C   0  0  0  0  0  0  0  0  0  0  0  0
   -2.4158   -0.8919    0.2887 C   0  0  0  0  0  0  0  0  0  0  0  0
   -3.7920   -0.8049    0.3584 O   0  0  0  0  0  0  0  0  0  0  0  0
   -4.4939    0.3785    0.2391 C   0  0  0  0  0  0  0  0  0  0  0  0
   -3.9234    1.6069    0.0382 C   0  0  0  0  0  0  0  0  0  0  0  0
   -4.6848    2.7471   -0.0717 C   0  0  0  0  0  0  0  0  0  0  0  0
   -6.0515    2.6817    0.0182 C   0  0  0  0  0  0  0  0  0  0  0  0
   -6.8420    3.7930   -0.0861 F   0  0  0  0  0  0  0  0  0  0  0  0
   -6.6304    1.4476    0.2202 C   0  0  0  0  0  0  0  0  0  0  0  0
   -5.8758    0.3138    0.3297 C   0  0  0  0  0  0  0  0  0  0  0  0
   -6.4754   -0.8994    0.5302 F   0  0  0  0  0  0  0  0  0  0  0  0
   -1.6950   -0.5000   -0.8242 C   0  0  0  0  0  0  0  0  0  0  0  0
   -2.3587   -0.0480   -1.7997 O   0  0  0  0  0  0  0  0  0  0  0  0
   -0.3657   -0.6075   -0.8335 N   0  0  0  0  0  0  0  0  0  0  0  0
    0.3425   -0.1762   -2.0411 C   0  0  0  0  0  0  0  0  0  0  0  0
    0.3157   -1.0967    0.2298 C   0  0  0  0  0  0  0  0  0  0  0  0
    1.6543   -1.2026    0.2144 N   0  0  0  0  0  0  0  0  0  0  0  0
  1  2  1  0
  2  3  1  0
  3  4  1  0
  4  5  2  0
  4  6  1  0
  6  7  1  1
  7  8  1  0
  8  9  2  0
  9 10  1  0
 10 11  2  0
 11 12  1  0
 12 13  2  0
  6 14  1  0
 14 15  1  0
 15 16  2  0
 15 17  1  0
 17 18  1  0
 18 19  1  0
 19 20  2  0
 20 21  1  0
 21 22  2  0
 22 23  1  0
 22 24  1  0
 24 25  2  0
 27 26  1  1
 27 28  1  0
 28 29  1  0
 29 30  1  0
 30 31  2  0
 31 32  1  0
 32 33  2  0
 27 34  1  0
 34 35  1  0
 35 36  2  0
 36 37  1  0
 37 38  2  0
 38 39  1  0
 39 40  2  0
 40 41  1  0
 41 42  1  0
 42 43  2  0
 43 44  1  0
 44 45  2  0
 45 46  1  0
 45 47  1  0
 47 48  2  0
 48 49  1  0
 40 50  1  0
 50 51  2  0
 50 52  1  0
 52 53  1  0
 52 54  1  0
 54 55  2  0
 13  8  1  0
 25 19  1  0
 33 29  1  0
 55 35  1  0
 54 38  1  0
 48 42  1  0
M  END

