
     RDKit          3D

 45 47  0  0  0  0  0  0  0  0999 V2000
   -4.5211    2.6866    0.3849 C   0  0  0  0  0  0  0  0  0  0  0  0
   -3.4789    1.7715    0.9776 C   0  0  0  0  0  0  0  0  0  0  0  0
   -2.6940    1.2512   -0.1405 N   0  0  0  0  0  0  0  0  0  0  0  0
   -1.6410    0.3635    0.1033 C   0  0  0  0  0  0  0  0  0  0  0  0
   -1.3193   -0.0210    1.2201 O   0  0  0  0  0  0  0  0  0  0  0  0
   -0.8747   -0.1230   -1.1867 C   0  0  2  0  0  0  0  0  0  0  0  0
   -1.9140   -1.3405   -1.5538 C   0  0  0  0  0  0  0  0  0  0  0  0
   -1.9619   -2.4838   -0.1893 S   0  0  0  0  0  0  0  0  0  0  0  0
    0.1613   -1.0502   -0.4722 N   0  0  0  0  0  0  0  0  0  0  0  0
    1.4416   -0.4347   -0.4158 C   0  0  0  0  0  0  0  0  0  0  0  0
    1.6757    0.7181   -0.8942 O   0  0  0  0  0  0  0  0  0  0  0  0
    2.6256   -1.1016    0.2173 C   0  0  0  0  0  0  0  0  0  0  0  0
    3.8642   -0.2518    0.1539 C   0  0  0  0  0  0  0  0  0  0  0  0
    4.9874   -1.0070    0.8127 C   0  0  0  0  0  0  0  0  0  0  0  0
    3.6492    1.0228    0.9826 C   0  0  0  0  0  0  0  0  0  0  0  0
   -4.2481    0.1157    2.1326 C   0  0  0  0  0  0  0  0  0  0  0  0
   -4.3367    1.7144    1.7078 C   0  0  2  0  0  0  0  0  0  0  0  0
   -3.8813    1.4028    0.1483 C   0  0  0  0  0  0  0  0  0  0  0  0
   -4.9246    0.5252   -0.3199 N   0  0  0  0  0  0  0  0  0  0  0  0
   -4.9570   -0.7636   -0.2438 N   0  0  0  0  0  0  0  0  0  0  0  0
   -6.1156   -1.1705   -0.8046 C   0  0  0  0  0  0  0  0  0  0  0  0
   -6.7829   -0.0747   -1.2230 N   0  0  0  0  0  0  0  0  0  0  0  0
   -6.0228    0.9603   -0.9103 N   0  0  0  0  0  0  0  0  0  0  0  0
   -2.9359    2.1390    2.1799 N   0  0  0  0  0  0  0  0  0  0  0  0
   -1.7504    1.6508    1.7035 C   0  0  0  0  0  0  0  0  0  0  0  0
   -0.5281    2.0625    2.1655 N   0  0  0  0  0  0  0  0  0  0  0  0
    0.6063    1.5748    1.6788 C   0  0  0  0  0  0  0  0  0  0  0  0
    0.5893    0.6173    0.6703 C   0  0  0  0  0  0  0  0  0  0  0  0
    1.7579    0.0980    0.1496 C   0  0  0  0  0  0  0  0  0  0  0  0
    1.7164   -0.8477   -0.8486 C   0  0  0  0  0  0  0  0  0  0  0  0
    2.9032   -1.3867   -1.3895 O   0  0  0  0  0  0  0  0  0  0  0  0
    4.1067   -0.9328   -0.8832 C   0  0  0  0  0  0  0  0  0  0  0  0
    5.0232   -0.3108   -1.7319 C   0  0  0  0  0  0  0  0  0  0  0  0
    6.2122    0.1289   -1.1934 C   0  0  0  0  0  0  0  0  0  0  0  0
    6.4941   -0.0384    0.1471 C   0  0  0  0  0  0  0  0  0  0  0  0
    7.6899    0.4141    0.6432 F   0  0  0  0  0  0  0  0  0  0  0  0
    5.5785   -0.6545    0.9713 C   0  0  0  0  0  0  0  0  0  0  0  0
    4.3684   -1.1103    0.4596 C   0  0  0  0  0  0  0  0  0  0  0  0
    3.4493   -1.7219    1.2565 F   0  0  0  0  0  0  0  0  0  0  0  0
    0.4844   -1.2456   -1.2967 C   0  0  0  0  0  0  0  0  0  0  0  0
    0.4627   -2.1197   -2.2190 O   0  0  0  0  0  0  0  0  0  0  0  0
   -0.6618   -0.7354   -0.7849 N   0  0  0  0  0  0  0  0  0  0  0  0
   -1.9216   -1.2097   -1.3181 C   0  0  0  0  0  0  0  0  0  0  0  0
   -0.6310    0.1918    0.1937 C   0  0  0  0  0  0  0  0  0  0  0  0
   -1.7444    0.7268    0.7309 N   0  0  0  0  0  0  0  0  0  0  0  0
  1  2  1  0
  2  3  1  0
  3  4  1  0
  4  5  2  0
  4  6  1  0
  6  7  1  6
  7  8  1  0
  6  9  1  0
  9 10  1  0
 10 11  2  0
 10 12  1  0
 12 13  1  0
 13 14  1  0
 13 15  1  0
 17 16  1  1
 17 18  1  0
 18 19  1  0
 19 20  1  0
 20 21  2  0
 21 22  1  0
 22 23  2  0
 17 24  1  0
 24 25  1  0
 25 26  2  0
 26 27  1  0
 27 28  2  0
 28 29  1  0
 29 30  2  0
 30 31  1  0
 31 32  1  0
 32 33  2  0
 33 34  1  0
 34 35  2  0
 35 36  1  0
 35 37  1  0
 37 38  2  0
 38 39  1  0
 30 40  1  0
 40 41  2  0
 40 42  1  0
 42 43  1  0
 42 44  1  0
 44 45  2  0
 23 19  1  0
 45 25  1  0
 44 28  1  0
 38 32  1  0
M  END

