
     RDKit          3D

 53 56  0  0  0  0  0  0  0  0999 V2000
    4.5549    3.2184    3.0960 C   0  0  0  0  0  0  0  0  0  0  0  0
    3.9964    2.9878    1.7074 C   0  0  0  0  0  0  0  0  0  0  0  0
    2.5607    2.5859    1.7607 C   0  0  0  0  0  0  0  0  0  0  0  0
    1.9224    2.4384    2.8118 O   0  0  0  0  0  0  0  0  0  0  0  0
    1.8695    2.3569    0.5557 N   0  0  0  0  0  0  0  0  0  0  0  0
    0.3652    1.9411    0.6616 C   0  0  1  0  0  0  0  0  0  0  0  0
    0.2510    1.4469   -0.9209 C   0  0  0  0  0  0  0  0  0  0  0  0
    1.2467    0.3750   -1.0882 C   0  0  0  0  0  0  0  0  0  0  0  0
    1.3740   -0.2709   -2.3596 C   0  0  0  0  0  0  0  0  0  0  0  0
    2.4283   -1.1625   -2.6358 N   0  0  0  0  0  0  0  0  0  0  0  0
    0.4927   -0.0117   -3.2435 O   0  0  0  0  0  0  0  0  0  0  0  0
    0.5918    0.5076    1.3015 C   0  0  0  0  0  0  0  0  0  0  0  0
    1.6394    0.0448    1.6472 O   0  0  0  0  0  0  0  0  0  0  0  0
   -0.5757   -0.2575    1.4547 N   0  0  0  0  0  0  0  0  0  0  0  0
   -0.6887   -1.5957    1.9940 C   0  0  0  0  0  0  0  0  0  0  0  0
   -2.1444   -2.0665    1.9344 C   0  0  0  0  0  0  0  0  0  0  0  0
   -2.4762   -1.9781    0.4672 C   0  0  0  0  0  0  0  0  0  0  0  0
   -3.0425   -0.7937    0.0420 C   0  0  0  0  0  0  0  0  0  0  0  0
   -3.3136   -0.6827   -1.2981 C   0  0  0  0  0  0  0  0  0  0  0  0
   -3.0456   -1.6914   -2.2159 C   0  0  0  0  0  0  0  0  0  0  0  0
   -3.3280   -1.5521   -3.5692 O   0  0  0  0  0  0  0  0  0  0  0  0
   -2.4853   -2.8424   -1.7322 C   0  0  0  0  0  0  0  0  0  0  0  0
   -2.1929   -2.9974   -0.3710 C   0  0  0  0  0  0  0  0  0  0  0  0
    5.6875   -0.5079   -1.9221 C   0  0  0  0  0  0  0  0  0  0  0  0
    4.2211    0.1216   -1.4464 C   0  0  2  0  0  0  0  0  0  0  0  0
    4.3400   -0.5911    0.0550 C   0  0  0  0  0  0  0  0  0  0  0  0
    5.5623    0.0351    0.5198 N   0  0  0  0  0  0  0  0  0  0  0  0
    6.7635   -0.5010    0.2998 N   0  0  0  0  0  0  0  0  0  0  0  0
    7.6942    0.2781    0.8314 C   0  0  0  0  0  0  0  0  0  0  0  0
    7.0574    1.3147    1.3904 N   0  0  0  0  0  0  0  0  0  0  0  0
    5.7680    1.1370    1.1838 N   0  0  0  0  0  0  0  0  0  0  0  0
    3.4237   -1.0841   -2.0657 N   0  0  0  0  0  0  0  0  0  0  0  0
    2.0246   -1.0232   -1.9180 C   0  0  0  0  0  0  0  0  0  0  0  0
    1.2995   -2.0256   -2.4278 N   0  0  0  0  0  0  0  0  0  0  0  0
   -0.0561   -1.9929   -2.2996 C   0  0  0  0  0  0  0  0  0  0  0  0
   -0.6942   -0.9526   -1.6580 C   0  0  0  0  0  0  0  0  0  0  0  0
   -2.0728   -0.8829   -1.5069 C   0  0  0  0  0  0  0  0  0  0  0  0
   -2.7062    0.1615   -0.8634 C   0  0  0  0  0  0  0  0  0  0  0  0
   -4.0904    0.1908   -0.7348 O   0  0  0  0  0  0  0  0  0  0  0  0
   -4.6584    0.2159    0.5105 C   0  0  0  0  0  0  0  0  0  0  0  0
   -5.4557    1.2715    0.8524 C   0  0  0  0  0  0  0  0  0  0  0  0
   -6.0201    1.2673    2.1297 C   0  0  0  0  0  0  0  0  0  0  0  0
   -5.7818    0.2484    2.9966 C   0  0  0  0  0  0  0  0  0  0  0  0
   -6.3181    0.2375    4.2200 F   0  0  0  0  0  0  0  0  0  0  0  0
   -4.9796   -0.7813    2.6079 C   0  0  0  0  0  0  0  0  0  0  0  0
   -4.3971   -0.8276    1.3593 C   0  0  0  0  0  0  0  0  0  0  0  0
   -3.6000   -1.8393    0.9574 F   0  0  0  0  0  0  0  0  0  0  0  0
   -1.8769    1.1476   -0.3712 C   0  0  0  0  0  0  0  0  0  0  0  0
   -2.4225    2.1145    0.2212 O   0  0  0  0  0  0  0  0  0  0  0  0
   -0.5173    1.0941   -0.5115 N   0  0  0  0  0  0  0  0  0  0  0  0
    0.3063    2.1709    0.0325 C   0  0  0  0  0  0  0  0  0  0  0  0
    0.0785    0.0666   -1.1425 C   0  0  0  0  0  0  0  0  0  0  0  0
    1.4206   -0.0197   -1.3000 N   0  0  0  0  0  0  0  0  0  0  0  0
  1  2  1  0
  2  3  1  0
  3  4  2  0
  3  5  1  0
  5  6  1  0
  6  7  1  6
  7  8  1  0
  8  9  1  0
  9 10  1  0
  9 11  2  0
  6 12  1  0
 12 13  2  0
 12 14  1  0
 14 15  1  0
 15 16  1  0
 16 17  1  0
 17 18  2  0
 18 19  1  0
 19 20  2  0
 20 21  1  0
 20 22  1  0
 22 23  2  0
 25 24  1  6
 25 26  1  0
 26 27  1  0
 27 28  1  0
 28 29  2  0
 29 30  1  0
 30 31  2  0
 25 32  1  0
 32 33  1  0
 33 34  2  0
 34 35  1  0
 35 36  2  0
 36 37  1  0
 37 38  2  0
 38 39  1  0
 39 40  1  0
 40 41  2  0
 41 42  1  0
 42 43  2  0
 43 44  1  0
 43 45  1  0
 45 46  2  0
 46 47  1  0
 38 48  1  0
 48 49  2  0
 48 50  1  0
 50 51  1  0
 50 52  1  0
 52 53  2  0
 23 17  1  0
 31 27  1  0
 53 33  1  0
 52 36  1  0
 46 40  1  0
M  END

