
     RDKit          3D

 54 57  0  0  0  0  0  0  0  0999 V2000
   -5.2874   -3.8341    2.3186 C   0  0  0  0  0  0  0  0  0  0  0  0
   -5.2276   -3.5112    0.6059 S   0  0  0  0  0  0  0  0  0  0  0  0
   -3.8126   -2.4173    0.2084 C   0  0  0  0  0  0  0  0  0  0  0  0
   -3.8140   -2.1569   -1.2598 C   0  0  0  0  0  0  0  0  0  0  0  0
   -2.7257   -1.3547   -1.7543 C   0  0  0  0  0  0  0  0  0  0  0  0
   -2.4726   -0.0178   -1.2447 C   0  0  0  0  0  0  0  0  0  0  0  0
   -3.0329    0.3522   -0.1927 O   0  0  0  0  0  0  0  0  0  0  0  0
   -1.6171    0.8185   -1.9288 N   0  0  0  0  0  0  0  0  0  0  0  0
   -1.3002    2.2669   -1.4046 C   0  0  1  0  0  0  0  0  0  0  0  0
   -1.6184    2.0580    0.1505 C   0  0  0  0  0  0  0  0  0  0  0  0
   -1.3838    3.4468    0.6680 C   0  0  0  0  0  0  0  0  0  0  0  0
   -0.1844    3.9280    1.1584 N   0  0  0  0  0  0  0  0  0  0  0  0
   -2.4285    4.1868    0.6206 O   0  0  0  0  0  0  0  0  0  0  0  0
    0.2613    1.9120   -1.3615 C   0  0  0  0  0  0  0  0  0  0  0  0
    0.9896    2.4120   -2.2314 O   0  0  0  0  0  0  0  0  0  0  0  0
    0.8105    1.0683   -0.4354 N   0  0  0  0  0  0  0  0  0  0  0  0
    2.1966    0.6539   -0.3555 C   0  0  0  0  0  0  0  0  0  0  0  0
    2.1481   -0.4091    0.7640 C   0  0  0  0  0  0  0  0  0  0  0  0
    3.5037   -1.0237    0.8818 C   0  0  0  0  0  0  0  0  0  0  0  0
    3.7888   -2.1156    0.0816 C   0  0  0  0  0  0  0  0  0  0  0  0
    5.0896   -2.6604    0.1688 C   0  0  0  0  0  0  0  0  0  0  0  0
    6.0040   -2.1003    1.0183 C   0  0  0  0  0  0  0  0  0  0  0  0
    5.6977   -1.0239    1.7977 C   0  0  0  0  0  0  0  0  0  0  0  0
    4.4155   -0.4783    1.7262 C   0  0  0  0  0  0  0  0  0  0  0  0
    4.4911   -1.2477    1.2685 C   0  0  0  0  0  0  0  0  0  0  0  0
    5.3103   -1.6872   -0.0476 C   0  0  2  0  0  0  0  0  0  0  0  0
    5.3963   -0.3679   -0.9014 C   0  0  0  0  0  0  0  0  0  0  0  0
    4.2507    0.2611   -1.2994 N   0  0  0  0  0  0  0  0  0  0  0  0
    3.4460    0.1232   -2.3583 N   0  0  0  0  0  0  0  0  0  0  0  0
    2.4594    1.0325   -2.3190 C   0  0  0  0  0  0  0  0  0  0  0  0
    2.6444    1.7510   -1.2237 N   0  0  0  0  0  0  0  0  0  0  0  0
    3.7029    1.2943   -0.6224 N   0  0  0  0  0  0  0  0  0  0  0  0
    4.2263   -2.4547   -0.7710 N   0  0  0  0  0  0  0  0  0  0  0  0
    2.8661   -2.1648   -0.5580 C   0  0  0  0  0  0  0  0  0  0  0  0
    1.9179   -2.8694   -1.2592 N   0  0  0  0  0  0  0  0  0  0  0  0
    0.6064   -2.6552   -1.0662 C   0  0  0  0  0  0  0  0  0  0  0  0
    0.1441   -1.7240   -0.1609 C   0  0  0  0  0  0  0  0  0  0  0  0
   -1.1725   -1.4866    0.0540 C   0  0  0  0  0  0  0  0  0  0  0  0
   -1.6316   -0.5057    1.0076 C   0  0  0  0  0  0  0  0  0  0  0  0
   -2.9562   -0.4076    1.0895 O   0  0  0  0  0  0  0  0  0  0  0  0
   -3.8834    0.5297    0.8228 C   0  0  0  0  0  0  0  0  0  0  0  0
   -4.7802    0.2213   -0.2511 C   0  0  0  0  0  0  0  0  0  0  0  0
   -5.7495    1.0564   -0.6224 C   0  0  0  0  0  0  0  0  0  0  0  0
   -5.9401    2.2539    0.0026 C   0  0  0  0  0  0  0  0  0  0  0  0
   -6.9292    3.1087   -0.3756 F   0  0  0  0  0  0  0  0  0  0  0  0
   -5.1109    2.5748    1.0208 C   0  0  0  0  0  0  0  0  0  0  0  0
   -4.0808    1.7199    1.4386 C   0  0  0  0  0  0  0  0  0  0  0  0
   -3.3895    2.1984    2.4908 F   0  0  0  0  0  0  0  0  0  0  0  0
   -0.6514    0.1666    1.6799 C   0  0  0  0  0  0  0  0  0  0  0  0
   -0.9332    1.0469    2.5443 O   0  0  0  0  0  0  0  0  0  0  0  0
    0.6452   -0.1115    1.4239 N   0  0  0  0  0  0  0  0  0  0  0  0
    1.6456    0.6379    2.1703 C   0  0  0  0  0  0  0  0  0  0  0  0
    1.0902   -1.0165    0.5432 C   0  0  0  0  0  0  0  0  0  0  0  0
    2.3659   -1.2777    0.3037 N   0  0  0  0  0  0  0  0  0  0  0  0
  1  2  1  0
  2  3  1  0
  3  4  1  0
  4  5  1  0
  5  6  1  0
  6  7  2  0
  6  8  1  0
  8  9  1  0
  9 10  1  1
 10 11  1  0
 11 12  1  0
 11 13  2  0
  9 14  1  0
 14 15  2  0
 14 16  1  0
 16 17  1  0
 17 18  1  0
 18 19  1  0
 19 20  2  0
 20 21  1  0
 21 22  2  0
 22 23  1  0
 23 24  2  0
 26 25  1  1
 26 27  1  0
 27 28  1  0
 28 29  1  0
 29 30  2  0
 30 31  1  0
 31 32  2  0
 26 33  1  0
 33 34  1  0
 34 35  2  0
 35 36  1  0
 36 37  2  0
 37 38  1  0
 38 39  2  0
 39 40  1  0
 40 41  1  0
 41 42  2  0
 42 43  1  0
 43 44  2  0
 44 45  1  0
 44 46  1  0
 46 47  2  0
 47 48  1  0
 39 49  1  0
 49 50  2  0
 49 51  1  0
 51 52  1  0
 51 53  1  0
 53 54  2  0
 24 19  1  0
 32 28  1  0
 54 34  1  0
 53 37  1  0
 47 41  1  0
M  END

