
     RDKit          3D

 52 54  0  0  0  0  0  0  0  0999 V2000
    1.5745   -4.0252    2.2697 C   0  0  0  0  0  0  0  0  0  0  0  0
    1.1801   -2.5899    2.0774 C   0  0  0  0  0  0  0  0  0  0  0  0
    0.0482   -2.5567    0.9211 C   0  0  2  0  0  0  0  0  0  0  0  0
    0.9569   -3.1946   -0.2374 C   0  0  0  0  0  0  0  0  0  0  0  0
    0.2331   -0.9004    0.5778 C   0  0  2  0  0  0  0  0  0  0  0  0
   -0.8583   -0.8829   -0.5537 N   0  0  0  0  0  0  0  0  0  0  0  0
   -2.0707   -0.2637   -0.1767 C   0  0  0  0  0  0  0  0  0  0  0  0
   -2.2027    0.2049    0.9634 O   0  0  0  0  0  0  0  0  0  0  0  0
   -3.1809   -0.1869   -1.1693 C   0  0  0  0  0  0  0  0  0  0  0  0
   -4.3712    0.4873   -0.5373 C   0  0  0  0  0  0  0  0  0  0  0  0
   -3.9615    1.8669   -0.1054 C   0  0  0  0  0  0  0  0  0  0  0  0
   -5.0995    2.5730    0.5268 C   0  0  0  0  0  0  0  0  0  0  0  0
   -6.3211    1.9419    0.7109 O   0  0  0  0  0  1  0  0  0  0  0  0
   -4.9212    3.7610    0.8905 O   0  0  0  0  0  0  0  0  0  0  0  0
    1.5197   -0.9267   -0.3185 C   0  0  0  0  0  0  0  0  0  0  0  0
    1.5325   -0.9169   -1.5224 O   0  0  0  0  0  0  0  0  0  0  0  0
    2.7017   -0.9642    0.4297 N   0  0  0  0  0  0  0  0  0  0  0  0
    4.0330   -0.9956   -0.1417 C   0  0  0  0  0  0  0  0  0  0  0  0
    4.3100    0.2326   -0.9873 C   0  0  0  0  0  0  0  0  0  0  0  0
    4.1756    1.4251   -0.0525 C   0  0  0  0  0  0  0  0  0  0  0  0
    4.4889    2.9539   -0.9700 S   0  0  0  0  0  0  0  0  0  0  0  0
    6.2328    2.9571   -1.4495 C   0  0  0  0  0  0  0  0  0  0  0  0
   -6.3246   -1.8100   -0.3266 C   0  0  0  0  0  0  0  0  0  0  0  0
   -5.0024   -1.9802    0.6576 C   0  0  2  0  0  0  0  0  0  0  0  0
   -5.2173   -0.5105    1.3762 C   0  0  0  0  0  0  0  0  0  0  0  0
   -5.1560    0.4900    0.3778 N   0  0  0  0  0  0  0  0  0  0  0  0
   -6.0887    1.0425   -0.3846 N   0  0  0  0  0  0  0  0  0  0  0  0
   -5.5489    1.9573   -1.1919 C   0  0  0  0  0  0  0  0  0  0  0  0
   -4.2404    1.9667   -0.9157 N   0  0  0  0  0  0  0  0  0  0  0  0
   -4.0230    1.0902    0.0182 N   0  0  0  0  0  0  0  0  0  0  0  0
   -3.9914   -1.4682   -0.4362 N   0  0  0  0  0  0  0  0  0  0  0  0
   -2.6687   -1.4672    0.0559 C   0  0  0  0  0  0  0  0  0  0  0  0
   -2.3394   -1.8558    1.2967 N   0  0  0  0  0  0  0  0  0  0  0  0
   -1.0703   -1.8446    1.7396 C   0  0  0  0  0  0  0  0  0  0  0  0
   -0.0464   -1.4237    0.9124 C   0  0  0  0  0  0  0  0  0  0  0  0
    1.2685   -1.3823    1.2856 C   0  0  0  0  0  0  0  0  0  0  0  0
    2.2278   -0.9452    0.3878 C   0  0  0  0  0  0  0  0  0  0  0  0
    3.5597   -0.9003    0.7573 O   0  0  0  0  0  0  0  0  0  0  0  0
    4.1978    0.3439    0.7171 C   0  0  0  0  0  0  0  0  0  0  0  0
    3.5473    1.4925    0.3286 C   0  0  0  0  0  0  0  0  0  0  0  0
    4.2075    2.7029    0.3006 C   0  0  0  0  0  0  0  0  0  0  0  0
    5.5281    2.7730    0.6625 C   0  0  0  0  0  0  0  0  0  0  0  0
    6.1513    3.9833    0.6240 F   0  0  0  0  0  0  0  0  0  0  0  0
    6.1807    1.6276    1.0510 C   0  0  0  0  0  0  0  0  0  0  0  0
    5.5273    0.4116    1.0819 C   0  0  0  0  0  0  0  0  0  0  0  0
    6.1510   -0.7298    1.4615 F   0  0  0  0  0  0  0  0  0  0  0  0
    1.8372   -0.5569   -0.8749 C   0  0  0  0  0  0  0  0  0  0  0  0
    2.6838   -0.1550   -1.7138 O   0  0  0  0  0  0  0  0  0  0  0  0
    0.5457   -0.5922   -1.2568 N   0  0  0  0  0  0  0  0  0  0  0  0
    0.1559   -0.1807   -2.5861 C   0  0  0  0  0  0  0  0  0  0  0  0
   -0.3869   -1.0240   -0.3643 C   0  0  0  0  0  0  0  0  0  0  0  0
   -1.6653   -1.0550   -0.7538 N   0  0  0  0  0  0  0  0  0  0  0  0
  1  2  1  0
  2  3  1  0
  3  4  1  6
  3  5  1  0
  5  6  1  6
  6  7  1  0
  7  8  2  0
  7  9  1  0
  9 10  1  0
 10 11  1  0
 11 12  1  0
 12 13  1  0
 12 14  2  0
  5 15  1  0
 15 16  2  0
 15 17  1  0
 17 18  1  0
 18 19  1  0
 19 20  1  0
 20 21  1  0
 21 22  1  0
 24 23  1  6
 24 25  1  0
 25 26  1  0
 26 27  1  0
 27 28  2  0
 28 29  1  0
 29 30  2  0
 24 31  1  0
 31 32  1  0
 32 33  2  0
 33 34  1  0
 34 35  2  0
 35 36  1  0
 36 37  2  0
 37 38  1  0
 38 39  1  0
 39 40  2  0
 40 41  1  0
 41 42  2  0
 42 43  1  0
 42 44  1  0
 44 45  2  0
 45 46  1  0
 37 47  1  0
 47 48  2  0
 47 49  1  0
 49 50  1  0
 49 51  1  0
 51 52  2  0
 30 26  1  0
 52 32  1  0
 51 35  1  0
 45 39  1  0
M  RAD  1  13   2
M  END

