
     RDKit          3D

 47 50  0  0  0  0  0  0  0  0999 V2000
   -4.8902   -1.0706    1.1321 C   0  0  0  0  0  0  0  0  0  0  0  0
   -4.7638   -0.1889   -0.0940 C   0  0  0  0  0  0  0  0  0  0  0  0
   -5.0187    1.2689    0.2249 C   0  0  0  0  0  0  0  0  0  0  0  0
   -3.3982   -0.2840   -0.7277 C   0  0  0  0  0  0  0  0  0  0  0  0
   -2.3449    0.1137    0.1693 N   0  0  0  0  0  0  0  0  0  0  0  0
   -1.0095    0.0909   -0.2437 C   0  0  0  0  0  0  0  0  0  0  0  0
   -0.6797   -0.2589   -1.3579 O   0  0  0  0  0  0  0  0  0  0  0  0
    0.1288    0.5288    0.7494 C   0  0  2  0  0  0  0  0  0  0  0  0
   -0.0051    2.1532    0.4656 C   0  0  0  0  0  0  0  0  0  0  0  0
    0.9308    2.4200   -0.5996 C   0  0  0  0  0  0  0  0  0  0  0  0
    1.1237    1.1270   -1.3393 C   0  0  0  0  0  0  0  0  0  0  0  0
    1.3546    0.3150   -0.2016 N   0  0  0  0  0  0  0  0  0  0  0  0
    2.4030   -0.5570    0.1609 C   0  0  0  0  0  0  0  0  0  0  0  0
    2.3870   -1.1888    1.2562 O   0  0  0  0  0  0  0  0  0  0  0  0
    3.5789   -0.7876   -0.7079 C   0  0  0  0  0  0  0  0  0  0  0  0
    4.5636   -1.7573   -0.1100 C   0  0  0  0  0  0  0  0  0  0  0  0
    5.6397   -1.9245   -0.9799 O   0  0  0  0  0  0  0  0  0  0  0  0
   -5.9065    0.9297   -2.2034 C   0  0  0  0  0  0  0  0  0  0  0  0
   -4.3475    0.3879   -2.3561 C   0  0  2  0  0  0  0  0  0  0  0  0
   -4.6488   -1.0652   -1.6405 C   0  0  0  0  0  0  0  0  0  0  0  0
   -5.1211   -0.8420   -0.3274 N   0  0  0  0  0  0  0  0  0  0  0  0
   -6.4279   -0.6993   -0.0527 N   0  0  0  0  0  0  0  0  0  0  0  0
   -6.6224   -0.5010    1.2406 C   0  0  0  0  0  0  0  0  0  0  0  0
   -5.3990   -0.5175    1.8105 N   0  0  0  0  0  0  0  0  0  0  0  0
   -4.5236   -0.7242    0.8406 N   0  0  0  0  0  0  0  0  0  0  0  0
   -3.8641    1.0848   -1.0250 N   0  0  0  0  0  0  0  0  0  0  0  0
   -2.4842    0.8643   -0.7474 C   0  0  0  0  0  0  0  0  0  0  0  0
   -1.9620    1.4107    0.3615 N   0  0  0  0  0  0  0  0  0  0  0  0
   -0.6669    1.2588    0.7097 C   0  0  0  0  0  0  0  0  0  0  0  0
    0.1830    0.5195   -0.0811 C   0  0  0  0  0  0  0  0  0  0  0  0
    1.5357    0.3329    0.2380 C   0  0  0  0  0  0  0  0  0  0  0  0
    2.3366   -0.4119   -0.5840 C   0  0  0  0  0  0  0  0  0  0  0  0
    3.6540   -0.6044   -0.2903 O   0  0  0  0  0  0  0  0  0  0  0  0
    4.2687   -0.0731    0.8368 C   0  0  0  0  0  0  0  0  0  0  0  0
    3.5625    0.6955    1.7400 C   0  0  0  0  0  0  0  0  0  0  0  0
    4.1546    1.2368    2.8726 C   0  0  0  0  0  0  0  0  0  0  0  0
    5.4915    1.0119    3.1236 C   0  0  0  0  0  0  0  0  0  0  0  0
    6.0987    1.5222    4.2138 F   0  0  0  0  0  0  0  0  0  0  0  0
    6.2016    0.2384    2.2144 C   0  0  0  0  0  0  0  0  0  0  0  0
    5.5922   -0.2928    1.0899 C   0  0  0  0  0  0  0  0  0  0  0  0
    6.2798   -1.0523    0.1927 F   0  0  0  0  0  0  0  0  0  0  0  0
    1.7866   -0.9602   -1.7086 C   0  0  0  0  0  0  0  0  0  0  0  0
    2.4619   -1.6630   -2.5209 O   0  0  0  0  0  0  0  0  0  0  0  0
    0.4649   -0.7646   -1.9994 N   0  0  0  0  0  0  0  0  0  0  0  0
   -0.0791   -1.3624   -3.2001 C   0  0  0  0  0  0  0  0  0  0  0  0
   -0.3515   -0.0409   -1.2179 C   0  0  0  0  0  0  0  0  0  0  0  0
   -1.6678    0.1398   -1.5300 N   0  0  0  0  0  0  0  0  0  0  0  0
  1  2  1  0
  2  3  1  0
  2  4  1  0
  4  5  1  0
  5  6  1  0
  6  7  2  0
  8  6  1  6
  8  9  1  0
  9 10  1  0
 10 11  1  0
 11 12  1  0
 12 13  1  0
 13 14  2  0
 13 15  1  0
 15 16  1  0
 16 17  1  0
 19 18  1  1
 19 20  1  0
 20 21  1  0
 21 22  1  0
 22 23  2  0
 23 24  1  0
 24 25  2  0
 19 26  1  0
 26 27  1  0
 27 28  2  0
 28 29  1  0
 29 30  2  0
 30 31  1  0
 31 32  2  0
 32 33  1  0
 33 34  1  0
 34 35  2  0
 35 36  1  0
 36 37  2  0
 37 38  1  0
 37 39  1  0
 39 40  2  0
 40 41  1  0
 32 42  1  0
 42 43  2  0
 42 44  1  0
 44 45  1  0
 44 46  1  0
 46 47  2  0
 12  8  1  0
 25 21  1  0
 47 27  1  0
 46 30  1  0
 40 34  1  0
M  END

