
     RDKit          3D

 50 52  0  0  0  0  0  0  0  0999 V2000
    1.3204    1.7369   -0.7754 C   0  0  0  0  0  0  0  0  0  0  0  0
    0.7151    1.3230    0.5071 C   0  0  0  0  0  0  0  0  0  0  0  0
    0.7342    2.5003    1.4541 C   0  0  0  0  0  0  0  0  0  0  0  0
    1.2103    0.1667    1.2089 C   0  0  0  0  0  0  0  0  0  0  0  0
    1.0604   -1.1806    0.2782 C   0  0  2  0  0  0  0  0  0  0  0  0
    1.9638   -0.6248   -0.8844 N   0  0  0  0  0  0  0  0  0  0  0  0
    3.2959   -0.3665   -0.4657 C   0  0  0  0  0  0  0  0  0  0  0  0
    3.7042   -0.5612    0.7095 O   0  0  0  0  0  0  0  0  0  0  0  0
    4.2659    0.1607   -1.4557 C   0  0  0  0  0  0  0  0  0  0  0  0
    5.6003    0.3753   -0.8226 C   0  0  0  0  0  0  0  0  0  0  0  0
    6.0804   -0.8173   -0.3269 O   0  0  0  0  0  0  0  0  0  0  0  0
   -0.3414   -0.8074   -0.3551 C   0  0  0  0  0  0  0  0  0  0  0  0
   -0.4318   -0.2607   -1.4339 O   0  0  0  0  0  0  0  0  0  0  0  0
   -1.4447   -1.1690    0.4485 N   0  0  0  0  0  0  0  0  0  0  0  0
   -2.8227   -0.9221    0.0652 C   0  0  0  0  0  0  0  0  0  0  0  0
   -3.1151    0.5307   -0.1362 C   0  0  0  0  0  0  0  0  0  0  0  0
   -4.5728    0.6759   -0.5313 C   0  0  0  0  0  0  0  0  0  0  0  0
   -5.4731    0.1432    0.5124 C   0  0  0  0  0  0  0  0  0  0  0  0
   -5.0408   -0.4192    1.6839 O   0  0  0  0  0  1  0  0  0  0  0  0
   -6.7086    0.2079    0.3195 O   0  0  0  0  0  0  0  0  0  0  0  0
   -4.4226    0.1591    0.5816 C   0  0  0  0  0  0  0  0  0  0  0  0
   -4.6975    0.4238   -1.0367 C   0  0  2  0  0  0  0  0  0  0  0  0
   -5.5497   -0.9995   -1.2087 C   0  0  0  0  0  0  0  0  0  0  0  0
   -6.6573   -0.8673   -0.3033 N   0  0  0  0  0  0  0  0  0  0  0  0
   -7.8213   -0.3442   -0.6424 N   0  0  0  0  0  0  0  0  0  0  0  0
   -8.5825   -0.3971    0.4623 C   0  0  0  0  0  0  0  0  0  0  0  0
   -7.8882   -0.9498    1.4728 N   0  0  0  0  0  0  0  0  0  0  0  0
   -6.6945   -1.2324    0.9678 N   0  0  0  0  0  0  0  0  0  0  0  0
   -3.3571   -0.2404   -1.5471 N   0  0  0  0  0  0  0  0  0  0  0  0
   -2.1532    0.3157   -1.0950 C   0  0  0  0  0  0  0  0  0  0  0  0
   -2.0748    1.3688   -0.2622 N   0  0  0  0  0  0  0  0  0  0  0  0
   -0.8867    1.8579    0.1369 C   0  0  0  0  0  0  0  0  0  0  0  0
    0.3123    1.3153   -0.2790 C   0  0  0  0  0  0  0  0  0  0  0  0
    1.5384    1.8038    0.1199 C   0  0  0  0  0  0  0  0  0  0  0  0
    2.6918    1.2043   -0.3415 C   0  0  0  0  0  0  0  0  0  0  0  0
    3.9572    1.6426    0.0182 O   0  0  0  0  0  0  0  0  0  0  0  0
    4.7561    0.7096    0.6743 C   0  0  0  0  0  0  0  0  0  0  0  0
    5.9463    0.3759    0.0669 C   0  0  0  0  0  0  0  0  0  0  0  0
    6.7836   -0.5427    0.6657 C   0  0  0  0  0  0  0  0  0  0  0  0
    6.4517   -1.1323    1.8594 C   0  0  0  0  0  0  0  0  0  0  0  0
    7.3271   -2.0239    2.3821 F   0  0  0  0  0  0  0  0  0  0  0  0
    5.2630   -0.7873    2.4485 C   0  0  0  0  0  0  0  0  0  0  0  0
    4.4124    0.1282    1.8666 C   0  0  0  0  0  0  0  0  0  0  0  0
    3.2432    0.4558    2.4637 F   0  0  0  0  0  0  0  0  0  0  0  0
    2.5843    0.1256   -1.1948 C   0  0  0  0  0  0  0  0  0  0  0  0
    3.6392   -0.4473   -1.6362 O   0  0  0  0  0  0  0  0  0  0  0  0
    1.3643   -0.3121   -1.5536 N   0  0  0  0  0  0  0  0  0  0  0  0
    1.2870   -1.4487   -2.4524 C   0  0  0  0  0  0  0  0  0  0  0  0
    0.2205    0.2355   -1.1331 C   0  0  0  0  0  0  0  0  0  0  0  0
   -0.9931   -0.2131   -1.5004 N   0  0  0  0  0  0  0  0  0  0  0  0
  1  2  1  0
  2  3  1  0
  2  4  1  0
  5  4  1  1
  5  6  1  0
  6  7  1  0
  7  8  2  0
  7  9  1  0
  9 10  1  0
 10 11  1  0
  5 12  1  0
 12 13  2  0
 12 14  1  0
 14 15  1  0
 15 16  1  0
 16 17  1  0
 17 18  1  0
 18 19  1  0
 18 20  2  0
 22 21  1  1
 22 23  1  0
 23 24  1  0
 24 25  1  0
 25 26  2  0
 26 27  1  0
 27 28  2  0
 22 29  1  0
 29 30  1  0
 30 31  2  0
 31 32  1  0
 32 33  2  0
 33 34  1  0
 34 35  2  0
 35 36  1  0
 36 37  1  0
 37 38  2  0
 38 39  1  0
 39 40  2  0
 40 41  1  0
 40 42  1  0
 42 43  2  0
 43 44  1  0
 35 45  1  0
 45 46  2  0
 45 47  1  0
 47 48  1  0
 47 49  1  0
 49 50  2  0
 28 24  1  0
 50 30  1  0
 49 33  1  0
 43 37  1  0
M  RAD  1  19   2
M  END

