
     RDKit          3D

 53 55  0  0  0  0  0  0  0  0999 V2000
    7.2509    0.1479    1.9011 C   0  0  0  0  0  0  0  0  0  0  0  0
    6.0473    0.8893    2.4631 C   0  0  0  0  0  0  0  0  0  0  0  0
    5.6224    0.2729    3.7776 C   0  0  0  0  0  0  0  0  0  0  0  0
    4.9229    0.6795    1.4469 C   0  0  0  0  0  0  0  0  0  0  0  0
    4.6755   -0.8057    1.3279 C   0  0  0  0  0  0  0  0  0  0  0  0
    3.6401   -1.0729    0.3563 N   0  0  0  0  0  0  0  0  0  0  0  0
    2.3677   -0.5285    0.5627 C   0  0  0  0  0  0  0  0  0  0  0  0
    2.0352    0.1618    1.5095 O   0  0  0  0  0  0  0  0  0  0  0  0
    1.3135   -0.8868   -0.5828 C   0  0  1  0  0  0  0  0  0  0  0  0
    0.1223   -0.0966   -0.0341 N   0  0  0  0  0  0  0  0  0  0  0  0
   -1.1290   -0.1977   -0.5794 C   0  0  0  0  0  0  0  0  0  0  0  0
   -1.2626   -1.0074   -1.5860 O   0  0  0  0  0  0  0  0  0  0  0  0
   -2.3601    0.5198   -0.1604 C   0  0  0  0  0  0  0  0  0  0  0  0
   -3.3387    0.3852   -1.1018 C   0  0  0  0  0  0  0  0  0  0  0  0
   -4.2594    0.2591   -1.9865 C   0  0  0  0  0  0  0  0  0  0  0  0
   -5.5836   -0.3092   -2.0046 C   0  0  0  0  0  0  0  0  0  0  0  0
   -6.4573    0.3130   -1.0717 N   0  0  0  0  0  0  0  0  0  0  0  0
   -6.2413    0.2320    0.3316 C   0  0  0  0  0  0  0  0  0  0  0  0
   -7.1869    0.9119    1.1686 N   0  0  0  0  0  0  0  0  0  0  0  0
   -5.2797   -0.3907    0.8425 N   0  0  0  0  0  4  0  0  0  0  0  0
    1.8742    0.3864   -1.5901 C   0  0  1  0  0  0  0  0  0  0  0  0
    2.6069   -0.6995   -2.6095 C   0  0  0  0  0  0  0  0  0  0  0  0
    0.6197    0.4512   -2.3811 O   0  0  0  0  0  0  0  0  0  0  0  0
    3.2384   -3.2724    0.5291 C   0  0  0  0  0  0  0  0  0  0  0  0
    4.5344   -2.3185    0.1283 C   0  0  2  0  0  0  0  0  0  0  0  0
    3.9594   -1.0047    0.9514 C   0  0  0  0  0  0  0  0  0  0  0  0
    4.9745    0.0149    0.7387 N   0  0  0  0  0  0  0  0  0  0  0  0
    4.9946    0.8751   -0.2508 N   0  0  0  0  0  0  0  0  0  0  0  0
    6.0800    1.6525   -0.1113 C   0  0  0  0  0  0  0  0  0  0  0  0
    6.7013    1.2249    0.9919 N   0  0  0  0  0  0  0  0  0  0  0  0
    6.0127    0.2212    1.5022 N   0  0  0  0  0  0  0  0  0  0  0  0
    3.9385   -1.8983   -1.2656 N   0  0  0  0  0  0  0  0  0  0  0  0
    2.6954   -1.2663   -1.3079 C   0  0  0  0  0  0  0  0  0  0  0  0
    2.2068   -0.9180   -2.4959 N   0  0  0  0  0  0  0  0  0  0  0  0
    1.0186   -0.3042   -2.6489 C   0  0  0  0  0  0  0  0  0  0  0  0
    0.2373   -0.0027   -1.5523 C   0  0  0  0  0  0  0  0  0  0  0  0
   -0.9893    0.6252   -1.6418 C   0  0  0  0  0  0  0  0  0  0  0  0
   -1.7574    0.9187   -0.5291 C   0  0  0  0  0  0  0  0  0  0  0  0
   -2.9927    1.5507   -0.6164 O   0  0  0  0  0  0  0  0  0  0  0  0
   -4.1573    0.9582   -0.1557 C   0  0  0  0  0  0  0  0  0  0  0  0
   -4.1451   -0.2888    0.4121 C   0  0  0  0  0  0  0  0  0  0  0  0
   -5.3376   -0.8401    0.8585 C   0  0  0  0  0  0  0  0  0  0  0  0
   -6.5371   -0.1647    0.7455 C   0  0  0  0  0  0  0  0  0  0  0  0
   -7.6402   -0.7849    1.2088 F   0  0  0  0  0  0  0  0  0  0  0  0
   -6.5263    1.0761    0.1768 C   0  0  0  0  0  0  0  0  0  0  0  0
   -5.3298    1.6351   -0.2738 C   0  0  0  0  0  0  0  0  0  0  0  0
   -5.3287    2.8744   -0.8403 F   0  0  0  0  0  0  0  0  0  0  0  0
   -1.2032    0.5357    0.6769 C   0  0  0  0  0  0  0  0  0  0  0  0
   -1.8837    0.7907    1.7224 O   0  0  0  0  0  0  0  0  0  0  0  0
   -0.0066   -0.0761    0.7566 N   0  0  0  0  0  0  0  0  0  0  0  0
    0.5512   -0.4688    2.0551 C   0  0  0  0  0  0  0  0  0  0  0  0
    0.7486   -0.3661   -0.3214 C   0  0  0  0  0  0  0  0  0  0  0  0
    1.9432   -0.9787   -0.2201 N   0  0  0  0  0  0  0  0  0  0  0  0
  1  2  1  0
  2  3  1  0
  2  4  1  0
  4  5  1  0
  5  6  1  0
  6  7  1  0
  7  8  2  0
  7  9  1  0
  9 10  1  1
 10 11  1  0
 11 12  2  0
 11 13  1  0
 13 14  1  0
 14 15  1  0
 15 16  1  0
 16 17  1  0
 17 18  1  0
 18 19  1  0
 18 20  2  0
  9 21  1  0
 21 22  1  6
 21 23  1  0
 25 24  1  1
 25 26  1  0
 26 27  1  0
 27 28  1  0
 28 29  2  0
 29 30  1  0
 30 31  2  0
 25 32  1  0
 32 33  1  0
 33 34  2  0
 34 35  1  0
 35 36  2  0
 36 37  1  0
 37 38  2  0
 38 39  1  0
 39 40  1  0
 40 41  2  0
 41 42  1  0
 42 43  2  0
 43 44  1  0
 43 45  1  0
 45 46  2  0
 46 47  1  0
 38 48  1  0
 48 49  2  0
 48 50  1  0
 50 51  1  0
 50 52  1  0
 52 53  2  0
 31 27  1  0
 53 33  1  0
 52 36  1  0
 46 40  1  0
M  CHG  1  20   1
M  END

