
     RDKit          3D

 48 51  0  0  0  0  0  0  0  0999 V2000
   -3.1191    3.0411    0.4076 C   0  0  0  0  0  0  0  0  0  0  0  0
   -1.5995    3.1134    0.6364 C   0  0  0  0  0  0  0  0  0  0  0  0
   -1.0219    2.2048   -0.4079 N   0  0  0  0  0  0  0  0  0  0  0  0
   -1.4044    0.8388   -0.2707 C   0  0  0  0  0  0  0  0  0  0  0  0
   -2.1747    0.4456    0.6320 O   0  0  0  0  0  0  0  0  0  0  0  0
   -0.8934   -0.2609   -1.2220 C   0  0  2  0  0  0  0  0  0  0  0  0
   -0.9364   -1.4461    0.0005 C   0  0  0  0  0  0  0  0  0  0  0  0
   -2.3624   -1.6205    0.2793 C   0  0  0  0  0  0  0  0  0  0  0  0
   -3.2738   -2.1380   -0.8244 C   0  0  0  0  0  0  0  0  0  0  0  0
   -2.7563   -1.8875    1.6966 C   0  0  0  0  0  0  0  0  0  0  0  0
    0.6127   -0.2052   -1.2933 N   0  0  0  0  0  0  0  0  0  0  0  0
    1.5165   -0.9285   -0.6708 C   0  0  0  0  0  0  0  0  0  0  0  0
    1.2962   -1.8226    0.2317 O   0  0  0  0  0  0  0  0  0  0  0  0
    3.1212   -0.8189   -0.9203 C   0  0  2  0  0  0  0  0  0  0  0  0
    3.5171   -0.9508    0.6986 C   0  0  0  0  0  0  0  0  0  0  0  0
    3.6514    0.3951    1.2216 C   0  0  0  0  0  0  0  0  0  0  0  0
    2.7320    1.2467    0.3088 C   0  0  0  0  0  0  0  0  0  0  0  0
    3.0948    0.7935   -0.9304 N   0  0  0  0  0  0  0  0  0  0  0  0
    5.9071    0.1757   -3.0836 C   0  0  0  0  0  0  0  0  0  0  0  0
    5.2052    0.5561   -1.5830 C   0  0  2  0  0  0  0  0  0  0  0  0
    5.6297   -0.9386   -1.0017 C   0  0  0  0  0  0  0  0  0  0  0  0
    5.1320   -0.8880    0.3452 N   0  0  0  0  0  0  0  0  0  0  0  0
    5.8296   -0.4246    1.3824 N   0  0  0  0  0  0  0  0  0  0  0  0
    5.1133   -0.5294    2.5079 C   0  0  0  0  0  0  0  0  0  0  0  0
    3.9477   -1.0686    2.1627 N   0  0  0  0  0  0  0  0  0  0  0  0
    3.9812   -1.2742    0.8667 N   0  0  0  0  0  0  0  0  0  0  0  0
    3.7852    0.1863   -2.1379 N   0  0  0  0  0  0  0  0  0  0  0  0
    2.6515    0.5817   -1.4310 C   0  0  0  0  0  0  0  0  0  0  0  0
    2.6636    1.2903   -0.2861 N   0  0  0  0  0  0  0  0  0  0  0  0
    1.5407    1.6510    0.3652 C   0  0  0  0  0  0  0  0  0  0  0  0
    0.3101    1.2999   -0.1277 C   0  0  0  0  0  0  0  0  0  0  0  0
   -0.8881    1.6250    0.4709 C   0  0  0  0  0  0  0  0  0  0  0  0
   -2.0955    1.2256   -0.1012 C   0  0  0  0  0  0  0  0  0  0  0  0
   -3.2843    1.5469    0.4906 O   0  0  0  0  0  0  0  0  0  0  0  0
   -4.1819    0.5778    0.9148 C   0  0  0  0  0  0  0  0  0  0  0  0
   -5.4467    0.5712    0.3673 C   0  0  0  0  0  0  0  0  0  0  0  0
   -6.3666   -0.3755    0.7629 C   0  0  0  0  0  0  0  0  0  0  0  0
   -6.0309   -1.3250    1.7096 C   0  0  0  0  0  0  0  0  0  0  0  0
   -6.9517   -2.2466    2.0837 F   0  0  0  0  0  0  0  0  0  0  0  0
   -4.7509   -1.2816    2.2327 C   0  0  0  0  0  0  0  0  0  0  0  0
   -3.8160   -0.3566    1.8620 C   0  0  0  0  0  0  0  0  0  0  0  0
   -2.5802   -0.3745    2.4175 F   0  0  0  0  0  0  0  0  0  0  0  0
   -2.0969    0.4990   -1.2759 C   0  0  0  0  0  0  0  0  0  0  0  0
   -3.1838    0.1200   -1.8223 O   0  0  0  0  0  0  0  0  0  0  0  0
   -0.9054    0.2082   -1.8186 N   0  0  0  0  0  0  0  0  0  0  0  0
   -0.8487   -0.5609   -3.0655 C   0  0  0  0  0  0  0  0  0  0  0  0
    0.2867    0.5737   -1.3003 C   0  0  0  0  0  0  0  0  0  0  0  0
    1.4439    0.2419   -1.9070 N   0  0  0  0  0  0  0  0  0  0  0  0
  1  2  1  0
  2  3  1  0
  3  4  1  0
  4  5  2  0
  4  6  1  0
  6  7  1  1
  7  8  1  0
  8  9  1  0
  8 10  1  0
  6 11  1  0
 11 12  1  0
 12 13  2  0
 14 12  1  1
 14 15  1  0
 15 16  1  0
 16 17  1  0
 17 18  1  0
 20 19  1  6
 20 21  1  0
 21 22  1  0
 22 23  1  0
 23 24  2  0
 24 25  1  0
 25 26  2  0
 20 27  1  0
 27 28  1  0
 28 29  2  0
 29 30  1  0
 30 31  2  0
 31 32  1  0
 32 33  2  0
 33 34  1  0
 34 35  1  0
 35 36  2  0
 36 37  1  0
 37 38  2  0
 38 39  1  0
 38 40  1  0
 40 41  2  0
 41 42  1  0
 33 43  1  0
 43 44  2  0
 43 45  1  0
 45 46  1  0
 45 47  1  0
 47 48  2  0
 18 14  1  0
 26 22  1  0
 48 28  1  0
 47 31  1  0
 41 35  1  0
M  END

