
     RDKit          3D

 54 58  0  0  0  0  0  0  0  0999 V2000
    6.0551    0.7899    1.1758 C   0  0  0  0  0  0  0  0  0  0  0  0
    4.5419    0.1820    0.7727 C   0  0  2  0  0  0  0  0  0  0  0  0
    4.8172    0.4670   -0.8605 C   0  0  0  0  0  0  0  0  0  0  0  0
    6.0078   -0.3710   -1.0759 N   0  0  0  0  0  0  0  0  0  0  0  0
    7.2718   -0.0247   -0.9504 N   0  0  0  0  0  0  0  0  0  0  0  0
    8.0147   -1.0994   -1.2430 C   0  0  0  0  0  0  0  0  0  0  0  0
    7.2097   -2.1123   -1.5500 N   0  0  0  0  0  0  0  0  0  0  0  0
    5.9788   -1.6420   -1.4408 N   0  0  0  0  0  0  0  0  0  0  0  0
    3.8530    1.5974    0.9680 N   0  0  0  0  0  0  0  0  0  0  0  0
    2.4498    1.5708    0.7144 C   0  0  0  0  0  0  0  0  0  0  0  0
    1.7206    2.6905    0.8363 N   0  0  0  0  0  0  0  0  0  0  0  0
    0.4009    2.7486    0.6165 C   0  0  0  0  0  0  0  0  0  0  0  0
   -0.2945    1.5876    0.2339 C   0  0  0  0  0  0  0  0  0  0  0  0
   -1.6101    1.5728   -0.0010 C   0  0  0  0  0  0  0  0  0  0  0  0
   -2.3066    0.3778   -0.3912 C   0  0  0  0  0  0  0  0  0  0  0  0
   -3.6092    0.4987   -0.5960 O   0  0  0  0  0  0  0  0  0  0  0  0
   -4.7666    0.0664   -0.0818 C   0  0  0  0  0  0  0  0  0  0  0  0
   -5.5970    1.0798    0.5241 C   0  0  0  0  0  0  0  0  0  0  0  0
   -6.7963    0.8201    1.0892 C   0  0  0  0  0  0  0  0  0  0  0  0
   -7.3291   -0.4474    1.1330 C   0  0  0  0  0  0  0  0  0  0  0  0
   -8.5371   -0.6655    1.7124 F   0  0  0  0  0  0  0  0  0  0  0  0
   -6.5789   -1.4417    0.5703 C   0  0  0  0  0  0  0  0  0  0  0  0
   -5.3290   -1.1693   -0.0191 C   0  0  0  0  0  0  0  0  0  0  0  0
   -4.6744   -2.2273   -0.5944 F   0  0  0  0  0  0  0  0  0  0  0  0
   -1.5232   -0.7216   -0.5005 C   0  0  0  0  0  0  0  0  0  0  0  0
   -2.0237   -1.8211   -0.8402 O   0  0  0  0  0  0  0  0  0  0  0  0
   -0.1604   -0.7045   -0.2560 N   0  0  0  0  0  0  0  0  0  0  0  0
    0.5813   -1.9394   -0.4020 C   0  0  0  0  0  0  0  0  0  0  0  0
    0.4479    0.4340    0.1067 C   0  0  0  0  0  0  0  0  0  0  0  0
    1.7854    0.4640    0.3494 N   0  0  0  0  0  0  0  0  0  0  0  0
   -0.9932    0.2158    1.3026 C   0  0  0  0  0  0  0  0  0  0  0  0
   -0.1639   -0.0053   -0.0958 C   0  0  2  0  0  0  0  0  0  0  0  0
   -1.2630   -0.7821   -0.8526 N   0  0  0  0  0  0  0  0  0  0  0  0
   -2.6050   -0.7546   -0.4424 C   0  0  0  0  0  0  0  0  0  0  0  0
   -2.9030   -0.0846    0.5653 O   0  0  0  0  0  0  0  0  0  0  0  0
   -3.7001   -1.4849   -1.1447 C   0  0  0  0  0  0  0  0  0  0  0  0
   -5.0338   -1.3384   -0.5488 C   0  0  0  0  0  0  0  0  0  0  0  0
   -5.4552    0.0722   -0.5311 C   0  0  0  0  0  0  0  0  0  0  0  0
   -6.1358    0.6732   -1.5754 C   0  0  0  0  0  0  0  0  0  0  0  0
   -6.3539    1.9519   -1.2003 N   0  0  0  0  0  0  0  0  0  0  0  0
   -5.8395    2.1669    0.0253 C   0  0  0  0  0  0  0  0  0  0  0  0
   -5.2906    1.0081    0.4227 N   0  0  0  0  0  0  0  0  0  0  0  0
    0.6759   -1.2359    0.4679 C   0  0  0  0  0  0  0  0  0  0  0  0
    0.3868   -2.3841    0.2973 O   0  0  0  0  0  0  0  0  0  0  0  0
    1.7949   -0.8367    1.1882 N   0  0  0  0  0  0  0  0  0  0  0  0
    2.7378   -1.7743    1.8199 C   0  0  0  0  0  0  0  0  0  0  0  0
    3.8121   -0.9095    2.4833 C   0  0  0  0  0  0  0  0  0  0  0  0
    4.4360   -0.1351    1.3711 C   0  0  0  0  0  0  0  0  0  0  0  0
    3.9411    1.0823    1.0056 C   0  0  0  0  0  0  0  0  0  0  0  0
    4.5290    1.8052   -0.0381 C   0  0  0  0  0  0  0  0  0  0  0  0
    5.6201    1.3055   -0.7206 C   0  0  0  0  0  0  0  0  0  0  0  0
    6.1858    2.0331   -1.7481 O   0  0  0  0  0  0  0  0  0  0  0  0
    6.0904    0.0669   -0.3169 C   0  0  0  0  0  0  0  0  0  0  0  0
    5.5270   -0.6555    0.7028 C   0  0  0  0  0  0  0  0  0  0  0  0
  2  1  1  1
  2  3  1  0
  3  4  1  0
  4  5  1  0
  5  6  2  0
  6  7  1  0
  7  8  2  0
  2  9  1  0
  9 10  1  0
 10 11  2  0
 11 12  1  0
 12 13  2  0
 13 14  1  0
 14 15  2  0
 15 16  1  0
 16 17  1  0
 17 18  2  0
 18 19  1  0
 19 20  2  0
 20 21  1  0
 20 22  1  0
 22 23  2  0
 23 24  1  0
 15 25  1  0
 25 26  2  0
 25 27  1  0
 27 28  1  0
 27 29  1  0
 29 30  2  0
 32 31  1  1
 32 33  1  0
 33 34  1  0
 34 35  2  0
 34 36  1  0
 36 37  1  0
 37 38  1  0
 38 39  2  0
 39 40  1  0
 40 41  1  0
 41 42  2  0
 32 43  1  0
 43 44  2  0
 43 45  1  0
 45 46  1  0
 46 47  1  0
 47 48  1  0
 48 49  2  0
 49 50  1  0
 50 51  2  0
 51 52  1  0
 51 53  1  0
 53 54  2  0
  8  4  1  0
 30 10  1  0
 42 38  1  0
 54 48  1  0
 29 13  1  0
 23 17  1  0
M  END

