
     RDKit          3D

 53 55  0  0  0  0  0  0  0  0999 V2000
   -4.0473   -1.1626   -1.4189 C   0  0  0  0  0  0  0  0  0  0  0  0
   -5.1322   -0.2294   -1.0373 C   0  0  0  0  0  0  0  0  0  0  0  0
   -6.1704   -0.0329   -2.1100 C   0  0  0  0  0  0  0  0  0  0  0  0
   -4.7249    1.0344   -0.3588 C   0  0  0  0  0  0  0  0  0  0  0  0
   -3.8189    1.9304   -1.1145 C   0  0  0  0  0  0  0  0  0  0  0  0
   -2.5355    1.4013   -1.4441 N   0  0  0  0  0  0  0  0  0  0  0  0
   -1.6229    1.0189   -0.4096 C   0  0  0  0  0  0  0  0  0  0  0  0
   -1.8681    1.1102    0.7652 O   0  0  0  0  0  0  0  0  0  0  0  0
   -0.2161    0.4532   -0.9678 C   0  0  2  0  0  0  0  0  0  0  0  0
   -0.6911   -1.1095   -1.1163 C   0  0  0  0  0  0  0  0  0  0  0  0
   -1.1167   -1.6969    0.0978 C   0  0  0  0  0  0  0  0  0  0  0  0
   -0.3140   -1.8849    1.2674 C   0  0  0  0  0  0  0  0  0  0  0  0
   -0.4551   -1.0987    2.3940 O   0  0  0  0  0  1  0  0  0  0  0  0
    0.5949   -2.7902    1.3817 O   0  0  0  0  0  0  0  0  0  0  0  0
    0.5227    0.2673    0.4071 N   0  0  0  0  0  0  0  0  0  0  0  0
    1.8800   -0.1167    0.2341 C   0  0  0  0  0  0  0  0  0  0  0  0
    2.3410   -0.2682   -0.9208 O   0  0  0  0  0  0  0  0  0  0  0  0
    2.7942   -0.3536    1.4105 C   0  0  0  0  0  0  0  0  0  0  0  0
    4.1299   -0.8804    0.8825 C   0  0  0  0  0  0  0  0  0  0  0  0
    4.8052    0.0572   -0.0599 C   0  0  0  0  0  0  0  0  0  0  0  0
    5.1034    1.3816    0.5703 C   0  0  0  0  0  0  0  0  0  0  0  0
    5.7511    2.3824   -0.2267 N   0  0  0  0  0  0  0  0  0  0  0  0
    4.7910    1.6073    1.7743 O   0  0  0  0  0  0  0  0  0  0  0  0
   -5.9167   -1.1325    0.4113 C   0  0  0  0  0  0  0  0  0  0  0  0
   -4.7475    0.0666    0.5669 C   0  0  2  0  0  0  0  0  0  0  0  0
   -4.5933    0.1905   -1.1012 C   0  0  0  0  0  0  0  0  0  0  0  0
   -5.9431    0.5679   -1.4917 N   0  0  0  0  0  0  0  0  0  0  0  0
   -6.4127    1.7904   -1.6022 N   0  0  0  0  0  0  0  0  0  0  0  0
   -7.7108    1.7163   -1.9879 C   0  0  0  0  0  0  0  0  0  0  0  0
   -7.9860    0.4001   -2.0998 N   0  0  0  0  0  0  0  0  0  0  0  0
   -6.8825   -0.2957   -1.7895 N   0  0  0  0  0  0  0  0  0  0  0  0
   -3.5792   -0.9988    0.6610 N   0  0  0  0  0  0  0  0  0  0  0  0
   -2.3267   -0.3714    0.8099 C   0  0  0  0  0  0  0  0  0  0  0  0
   -2.1482    0.9461    0.8644 N   0  0  0  0  0  0  0  0  0  0  0  0
   -0.9688    1.5456    1.0049 C   0  0  0  0  0  0  0  0  0  0  0  0
    0.1569    0.7429    1.1016 C   0  0  0  0  0  0  0  0  0  0  0  0
    1.4177    1.3072    1.2497 C   0  0  0  0  0  0  0  0  0  0  0  0
    2.4913    0.4568    1.3397 C   0  0  0  0  0  0  0  0  0  0  0  0
    3.7543    1.0360    1.4884 O   0  0  0  0  0  0  0  0  0  0  0  0
    4.7136    0.7861    0.5249 C   0  0  0  0  0  0  0  0  0  0  0  0
    5.9116    0.1778    0.8209 C   0  0  0  0  0  0  0  0  0  0  0  0
    6.8768   -0.0793   -0.1198 C   0  0  0  0  0  0  0  0  0  0  0  0
    6.6287    0.2935   -1.4304 C   0  0  0  0  0  0  0  0  0  0  0  0
    7.5552    0.0581   -2.3907 F   0  0  0  0  0  0  0  0  0  0  0  0
    5.4413    0.9077   -1.7803 C   0  0  0  0  0  0  0  0  0  0  0  0
    4.4946    1.1496   -0.8057 C   0  0  0  0  0  0  0  0  0  0  0  0
    3.3192    1.7430   -1.0790 F   0  0  0  0  0  0  0  0  0  0  0  0
    2.3251   -0.9163    1.2849 C   0  0  0  0  0  0  0  0  0  0  0  0
    3.3461   -1.6597    1.3723 O   0  0  0  0  0  0  0  0  0  0  0  0
    1.0924   -1.4235    1.1414 N   0  0  0  0  0  0  0  0  0  0  0  0
    0.9218   -2.8633    1.0843 C   0  0  0  0  0  0  0  0  0  0  0  0
   -0.0084   -0.6215    1.0472 C   0  0  0  0  0  0  0  0  0  0  0  0
   -1.2230   -1.1727    0.9044 N   0  0  0  0  0  0  0  0  0  0  0  0
  1  2  1  0
  2  3  1  0
  2  4  1  0
  4  5  1  0
  5  6  1  0
  6  7  1  0
  7  8  2  0
  7  9  1  0
  9 10  1  1
 10 11  1  0
 11 12  1  0
 12 13  1  0
 12 14  2  0
  9 15  1  0
 15 16  1  0
 16 17  2  0
 16 18  1  0
 18 19  1  0
 19 20  1  0
 20 21  1  0
 21 22  1  0
 21 23  2  0
 25 24  1  6
 25 26  1  0
 26 27  1  0
 27 28  1  0
 28 29  2  0
 29 30  1  0
 30 31  2  0
 25 32  1  0
 32 33  1  0
 33 34  2  0
 34 35  1  0
 35 36  2  0
 36 37  1  0
 37 38  2  0
 38 39  1  0
 39 40  1  0
 40 41  2  0
 41 42  1  0
 42 43  2  0
 43 44  1  0
 43 45  1  0
 45 46  2  0
 46 47  1  0
 38 48  1  0
 48 49  2  0
 48 50  1  0
 50 51  1  0
 50 52  1  0
 52 53  2  0
 31 27  1  0
 53 33  1  0
 52 36  1  0
 46 40  1  0
M  RAD  1  13   2
M  END

