
     RDKit          3D

 53 55  0  0  0  0  0  0  0  0999 V2000
    1.5880    2.8344    1.7111 C   0  0  0  0  0  0  0  0  0  0  0  0
    1.0812    1.6437    0.9009 C   0  0  0  0  0  0  0  0  0  0  0  0
    0.2136    0.7461    1.7303 C   0  0  0  0  0  0  0  0  0  0  0  0
    0.4131    2.2240   -0.2931 C   0  0  0  0  0  0  0  0  0  0  0  0
   -0.1553    1.0169   -1.2328 C   0  0  2  0  0  0  0  0  0  0  0  0
   -1.0897    0.4222   -0.1295 N   0  0  0  0  0  0  0  0  0  0  0  0
   -2.4170    0.2394   -0.5881 C   0  0  0  0  0  0  0  0  0  0  0  0
   -2.6736    0.5621   -1.7735 O   0  0  0  0  0  0  0  0  0  0  0  0
   -3.5073   -0.3142    0.2704 C   0  0  0  0  0  0  0  0  0  0  0  0
   -4.7613   -0.3590   -0.5708 C   0  0  0  0  0  0  0  0  0  0  0  0
   -5.9502   -0.8942    0.1537 C   0  0  0  0  0  0  0  0  0  0  0  0
   -5.7783   -2.2777    0.6501 C   0  0  0  0  0  0  0  0  0  0  0  0
   -6.8362   -2.8503    1.3331 O   0  0  0  0  0  1  0  0  0  0  0  0
   -4.6910   -2.8487    0.4251 O   0  0  0  0  0  0  0  0  0  0  0  0
    1.1018    0.0464   -1.0647 C   0  0  0  0  0  0  0  0  0  0  0  0
    1.1565   -0.8532   -0.2747 O   0  0  0  0  0  0  0  0  0  0  0  0
    2.1933    0.3157   -1.9337 N   0  0  0  0  0  0  0  0  0  0  0  0
    3.4236   -0.4449   -1.9417 C   0  0  0  0  0  0  0  0  0  0  0  0
    4.1604   -0.4270   -0.6385 C   0  0  0  0  0  0  0  0  0  0  0  0
    4.5161    1.0035   -0.2928 C   0  0  0  0  0  0  0  0  0  0  0  0
    5.2588    1.0609    1.0141 C   0  0  0  0  0  0  0  0  0  0  0  0
    6.5213    0.2666    0.9345 C   0  0  0  0  0  0  0  0  0  0  0  0
    6.2320   -1.1130    0.6367 N   0  0  0  0  0  4  0  0  0  0  0  0
    6.0987    1.0593    0.5952 C   0  0  0  0  0  0  0  0  0  0  0  0
    4.9350   -0.1073    0.5352 C   0  0  2  0  0  0  0  0  0  0  0  0
    4.8051   -0.0136   -1.1066 C   0  0  0  0  0  0  0  0  0  0  0  0
    6.1067   -0.3385   -1.6164 N   0  0  0  0  0  0  0  0  0  0  0  0
    7.0655    0.5088   -1.8497 N   0  0  0  0  0  0  0  0  0  0  0  0
    8.1290   -0.1339   -2.3156 C   0  0  0  0  0  0  0  0  0  0  0  0
    7.8184   -1.4317   -2.3740 N   0  0  0  0  0  0  0  0  0  0  0  0
    6.5872   -1.5431   -1.9465 N   0  0  0  0  0  0  0  0  0  0  0  0
    3.7596    0.9188    0.7683 N   0  0  0  0  0  0  0  0  0  0  0  0
    2.4793    0.2863    0.7889 C   0  0  0  0  0  0  0  0  0  0  0  0
    2.2680   -1.0104    0.6333 N   0  0  0  0  0  0  0  0  0  0  0  0
    1.0555   -1.5946    0.6547 C   0  0  0  0  0  0  0  0  0  0  0  0
   -0.0345   -0.7721    0.8536 C   0  0  0  0  0  0  0  0  0  0  0  0
   -1.3281   -1.2909    0.8904 C   0  0  0  0  0  0  0  0  0  0  0  0
   -2.3690   -0.4062    1.0936 C   0  0  0  0  0  0  0  0  0  0  0  0
   -3.6519   -0.8877    1.1344 O   0  0  0  0  0  0  0  0  0  0  0  0
   -4.6567   -0.5097    0.2766 C   0  0  0  0  0  0  0  0  0  0  0  0
   -4.5412    0.3918   -0.7383 C   0  0  0  0  0  0  0  0  0  0  0  0
   -5.6046    0.7342   -1.5783 C   0  0  0  0  0  0  0  0  0  0  0  0
   -6.8207    0.1462   -1.3845 C   0  0  0  0  0  0  0  0  0  0  0  0
   -7.9058    0.4168   -2.1488 F   0  0  0  0  0  0  0  0  0  0  0  0
   -6.9717   -0.7734   -0.3628 C   0  0  0  0  0  0  0  0  0  0  0  0
   -5.9088   -1.0954    0.4528 C   0  0  0  0  0  0  0  0  0  0  0  0
   -6.0861   -2.0046    1.4515 F   0  0  0  0  0  0  0  0  0  0  0  0
   -2.1469    0.9420    1.2551 C   0  0  0  0  0  0  0  0  0  0  0  0
   -3.1135    1.7320    1.4396 O   0  0  0  0  0  0  0  0  0  0  0  0
   -0.8910    1.4146    1.2153 N   0  0  0  0  0  0  0  0  0  0  0  0
   -0.6643    2.8174    1.3838 C   0  0  0  0  0  0  0  0  0  0  0  0
    0.1664    0.5824    1.0178 C   0  0  0  0  0  0  0  0  0  0  0  0
    1.4205    1.0810    0.9815 N   0  0  0  0  0  0  0  0  0  0  0  0
  1  2  1  0
  2  3  1  0
  2  4  1  0
  5  4  1  1
  5  6  1  0
  6  7  1  0
  7  8  2  0
  7  9  1  0
  9 10  1  0
 10 11  1  0
 11 12  1  0
 12 13  1  0
 12 14  2  0
  5 15  1  0
 15 16  2  0
 15 17  1  0
 17 18  1  0
 18 19  1  0
 19 20  1  0
 20 21  1  0
 21 22  1  0
 22 23  1  0
 25 24  1  6
 25 26  1  0
 26 27  1  0
 27 28  1  0
 28 29  2  0
 29 30  1  0
 30 31  2  0
 25 32  1  0
 32 33  1  0
 33 34  2  0
 34 35  1  0
 35 36  2  0
 36 37  1  0
 37 38  2  0
 38 39  1  0
 39 40  1  0
 40 41  2  0
 41 42  1  0
 42 43  2  0
 43 44  1  0
 43 45  1  0
 45 46  2  0
 46 47  1  0
 38 48  1  0
 48 49  2  0
 48 50  1  0
 50 51  1  0
 50 52  1  0
 52 53  2  0
 31 27  1  0
 53 33  1  0
 52 36  1  0
 46 40  1  0
M  CHG  1  23   1
M  RAD  1  13   2
M  END

