
     RDKit          3D

 54 57  0  0  0  0  0  0  0  0999 V2000
   -2.6297    0.8372    3.4975 C   0  0  0  0  0  0  0  0  0  0  0  0
   -3.5703    1.7776    2.9023 C   0  0  0  0  0  0  0  0  0  0  0  0
   -4.2447    2.7293    3.8381 C   0  0  0  0  0  0  0  0  0  0  0  0
   -4.2403    1.5168    1.6443 C   0  0  0  0  0  0  0  0  0  0  0  0
   -3.4551    1.3230    0.4712 N   0  0  0  0  0  0  0  0  0  0  0  0
   -2.5252    0.2836    0.3178 C   0  0  0  0  0  0  0  0  0  0  0  0
   -2.3390   -0.5280    1.1986 O   0  0  0  0  0  0  0  0  0  0  0  0
   -1.7423    0.2435   -1.0755 C   0  0  2  0  0  0  0  0  0  0  0  0
   -2.9248   -0.5835   -1.8369 C   0  0  0  0  0  0  0  0  0  0  0  0
   -2.4787   -0.7957   -3.2593 C   0  0  0  0  0  0  0  0  0  0  0  0
   -1.1937   -1.5860   -3.2225 C   0  0  0  0  0  0  0  0  0  0  0  0
   -2.3089    0.5046   -4.0110 C   0  0  0  0  0  0  0  0  0  0  0  0
   -0.8752   -1.0165   -0.7962 N   0  0  0  0  0  0  0  0  0  0  0  0
    0.5369   -0.8793   -1.0558 C   0  0  0  0  0  0  0  0  0  0  0  0
    0.8914    0.2429   -1.4745 O   0  0  0  0  0  0  0  0  0  0  0  0
    1.4788   -1.9882   -0.8392 C   0  0  0  0  0  0  0  0  0  0  0  0
    2.8844   -1.7380   -1.1353 C   0  0  0  0  0  0  0  0  0  0  0  0
    3.4360   -0.6721   -0.2971 C   0  0  0  0  0  0  0  0  0  0  0  0
    3.4309    0.6259   -0.7450 C   0  0  0  0  0  0  0  0  0  0  0  0
    3.9455    1.6618    0.0016 C   0  0  0  0  0  0  0  0  0  0  0  0
    4.4791    1.3285    1.2508 C   0  0  0  0  0  0  0  0  0  0  0  0
    4.9930    2.3851    1.9879 O   0  0  0  0  0  0  0  0  0  0  0  0
    4.4886    0.0385    1.7067 C   0  0  0  0  0  0  0  0  0  0  0  0
    3.9633   -0.9812    0.9314 C   0  0  0  0  0  0  0  0  0  0  0  0
    0.1226    3.8632    3.5484 C   0  0  0  0  0  0  0  0  0  0  0  0
   -1.4500    4.1932    3.1324 C   0  0  2  0  0  0  0  0  0  0  0  0
   -1.9506    2.6376    3.4167 C   0  0  0  0  0  0  0  0  0  0  0  0
   -1.6525    2.4080    4.8135 N   0  0  0  0  0  0  0  0  0  0  0  0
   -2.5132    2.6693    5.7847 N   0  0  0  0  0  0  0  0  0  0  0  0
   -1.9751    2.3611    6.9801 C   0  0  0  0  0  0  0  0  0  0  0  0
   -0.7316    1.8925    6.7115 N   0  0  0  0  0  0  0  0  0  0  0  0
   -0.5823    1.9387    5.4037 N   0  0  0  0  0  0  0  0  0  0  0  0
   -1.1583    4.0368    1.5932 N   0  0  0  0  0  0  0  0  0  0  0  0
   -0.6554    2.8310    1.1197 C   0  0  0  0  0  0  0  0  0  0  0  0
   -0.4075    1.7886    1.9344 N   0  0  0  0  0  0  0  0  0  0  0  0
    0.0790    0.6102    1.5067 C   0  0  0  0  0  0  0  0  0  0  0  0
    0.3545    0.4184    0.1527 C   0  0  0  0  0  0  0  0  0  0  0  0
    0.8459   -0.7473   -0.3437 C   0  0  0  0  0  0  0  0  0  0  0  0
    1.1283   -0.9444   -1.7354 C   0  0  0  0  0  0  0  0  0  0  0  0
    1.6123   -2.1363   -2.1107 O   0  0  0  0  0  0  0  0  0  0  0  0
    1.2701   -3.1936   -2.8576 C   0  0  0  0  0  0  0  0  0  0  0  0
    1.0982   -4.4031   -2.1049 C   0  0  0  0  0  0  0  0  0  0  0  0
    0.7596   -5.5876   -2.6256 C   0  0  0  0  0  0  0  0  0  0  0  0
    0.5516   -5.7013   -3.9719 C   0  0  0  0  0  0  0  0  0  0  0  0
    0.2109   -6.9019   -4.4765 F   0  0  0  0  0  0  0  0  0  0  0  0
    0.7004   -4.5830   -4.7481 C   0  0  0  0  0  0  0  0  0  0  0  0
    1.0572   -3.3431   -4.1908 C   0  0  0  0  0  0  0  0  0  0  0  0
    1.2178   -2.2905   -5.0167 F   0  0  0  0  0  0  0  0  0  0  0  0
    0.8538    0.1526   -2.4918 C   0  0  0  0  0  0  0  0  0  0  0  0
    1.0580    0.1357   -3.7548 O   0  0  0  0  0  0  0  0  0  0  0  0
    0.3582    1.3143   -1.9628 N   0  0  0  0  0  0  0  0  0  0  0  0
    0.0956    2.4344   -2.8586 C   0  0  0  0  0  0  0  0  0  0  0  0
    0.0959    1.4926   -0.6665 C   0  0  0  0  0  0  0  0  0  0  0  0
   -0.3933    2.6542   -0.1813 N   0  0  0  0  0  0  0  0  0  0  0  0
  1  2  1  0
  2  3  1  0
  2  4  1  0
  4  5  1  0
  5  6  1  0
  6  7  2  0
  6  8  1  0
  8  9  1  6
  9 10  1  0
 10 11  1  0
 10 12  1  0
  8 13  1  0
 13 14  1  0
 14 15  2  0
 14 16  1  0
 16 17  1  0
 17 18  1  0
 18 19  2  0
 19 20  1  0
 20 21  2  0
 21 22  1  0
 21 23  1  0
 23 24  2  0
 26 25  1  1
 26 27  1  0
 27 28  1  0
 28 29  1  0
 29 30  2  0
 30 31  1  0
 31 32  2  0
 26 33  1  0
 33 34  1  0
 34 35  2  0
 35 36  1  0
 36 37  2  0
 37 38  1  0
 38 39  2  0
 39 40  1  0
 40 41  1  0
 41 42  2  0
 42 43  1  0
 43 44  2  0
 44 45  1  0
 44 46  1  0
 46 47  2  0
 47 48  1  0
 39 49  1  0
 49 50  2  0
 49 51  1  0
 51 52  1  0
 51 53  1  0
 53 54  2  0
 24 18  1  0
 32 28  1  0
 54 34  1  0
 53 37  1  0
 47 41  1  0
M  END

