
     RDKit          3D

 51 53  0  0  0  0  0  0  0  0999 V2000
   -2.8718    1.4377   -1.5382 C   0  0  0  0  0  0  0  0  0  0  0  0
   -1.9857    2.5922   -1.8860 C   0  0  0  0  0  0  0  0  0  0  0  0
   -2.3987    3.2239   -3.1742 C   0  0  0  0  0  0  0  0  0  0  0  0
   -0.5758    2.1454   -2.0049 C   0  0  0  0  0  0  0  0  0  0  0  0
   -0.1802    1.5425   -0.5407 C   0  0  2  0  0  0  0  0  0  0  0  0
    1.2941    1.2141   -1.0449 N   0  0  0  0  0  0  0  0  0  0  0  0
    2.0537    0.4448   -0.1154 C   0  0  0  0  0  0  0  0  0  0  0  0
    1.5274    0.1010    0.9775 O   0  0  0  0  0  0  0  0  0  0  0  0
    3.3582    0.1013   -0.4562 C   0  0  0  0  0  0  0  0  0  0  0  0
    4.4190   -0.4710   -0.1607 C   0  0  0  0  0  0  0  0  0  0  0  0
    5.5741   -1.0408    0.2276 C   0  0  0  0  0  0  0  0  0  0  0  0
    6.2171   -2.0890   -0.4693 O   0  0  0  0  0  1  0  0  0  0  0  0
    6.1464   -0.6245    1.2924 O   0  0  0  0  0  0  0  0  0  0  0  0
   -0.7451    0.0824   -0.8184 C   0  0  0  0  0  0  0  0  0  0  0  0
   -0.4027   -0.5781   -1.7661 O   0  0  0  0  0  0  0  0  0  0  0  0
   -1.6890   -0.4114    0.1323 N   0  0  0  0  0  0  0  0  0  0  0  0
   -2.2162   -1.7405   -0.0895 C   0  0  0  0  0  0  0  0  0  0  0  0
   -3.1673   -2.2296    0.9300 C   0  0  0  0  0  0  0  0  0  0  0  0
   -4.3918   -1.4506    1.1223 C   0  0  0  0  0  0  0  0  0  0  0  0
   -5.3828   -1.8298    2.0772 N   0  0  0  0  0  0  0  0  0  0  0  0
   -4.5827   -0.4201    0.4324 O   0  0  0  0  0  0  0  0  0  0  0  0
    4.8769   -2.2759    1.9890 C   0  0  0  0  0  0  0  0  0  0  0  0
    5.2988   -1.3809    0.6569 C   0  0  2  0  0  0  0  0  0  0  0  0
    4.7865    0.0444    1.3187 C   0  0  0  0  0  0  0  0  0  0  0  0
    5.1092    0.9551    0.2135 N   0  0  0  0  0  0  0  0  0  0  0  0
    4.3413    1.3085   -0.8048 N   0  0  0  0  0  0  0  0  0  0  0  0
    4.9986    2.1629   -1.6076 C   0  0  0  0  0  0  0  0  0  0  0  0
    6.2091    2.3384   -1.0629 N   0  0  0  0  0  0  0  0  0  0  0  0
    6.2444    1.6025    0.0255 N   0  0  0  0  0  0  0  0  0  0  0  0
    3.9617   -1.6324   -0.1301 N   0  0  0  0  0  0  0  0  0  0  0  0
    2.7439   -1.2819    0.4080 C   0  0  0  0  0  0  0  0  0  0  0  0
    2.5395   -0.7063    1.6170 N   0  0  0  0  0  0  0  0  0  0  0  0
    1.3089   -0.3963    2.0651 C   0  0  0  0  0  0  0  0  0  0  0  0
    0.2045   -0.6645    1.2841 C   0  0  0  0  0  0  0  0  0  0  0  0
   -1.0771   -0.3857    1.6553 C   0  0  0  0  0  0  0  0  0  0  0  0
   -2.1272   -0.6862    0.8145 C   0  0  0  0  0  0  0  0  0  0  0  0
   -3.4467   -0.4229    1.1454 O   0  0  0  0  0  0  0  0  0  0  0  0
   -4.1804    0.4272    0.3354 C   0  0  0  0  0  0  0  0  0  0  0  0
   -3.6655    1.0329   -0.7916 C   0  0  0  0  0  0  0  0  0  0  0  0
   -4.4399    1.8693   -1.5608 C   0  0  0  0  0  0  0  0  0  0  0  0
   -5.7561    2.1385   -1.2427 C   0  0  0  0  0  0  0  0  0  0  0  0
   -6.5277    2.9667   -2.0018 F   0  0  0  0  0  0  0  0  0  0  0  0
   -6.2657    1.5253   -0.1078 C   0  0  0  0  0  0  0  0  0  0  0  0
   -5.5089    0.6799    0.6832 C   0  0  0  0  0  0  0  0  0  0  0  0
   -6.0098    0.0850    1.7876 F   0  0  0  0  0  0  0  0  0  0  0  0
   -1.8895   -1.2717   -0.4101 C   0  0  0  0  0  0  0  0  0  0  0  0
   -2.8273   -1.5618   -1.2077 O   0  0  0  0  0  0  0  0  0  0  0  0
   -0.6251   -1.5356   -0.7522 N   0  0  0  0  0  0  0  0  0  0  0  0
   -0.3376   -2.1538   -2.0385 C   0  0  0  0  0  0  0  0  0  0  0  0
    0.4099   -1.2483    0.0575 C   0  0  0  0  0  0  0  0  0  0  0  0
    1.6514   -1.5324   -0.3326 N   0  0  0  0  0  0  0  0  0  0  0  0
  1  2  1  0
  2  3  1  0
  2  4  1  0
  5  4  1  6
  5  6  1  0
  6  7  1  0
  7  8  2  0
  7  9  1  0
  9 10  1  0
 10 11  1  0
 11 12  1  0
 11 13  2  0
  5 14  1  0
 14 15  2  0
 14 16  1  0
 16 17  1  0
 17 18  1  0
 18 19  1  0
 19 20  1  0
 19 21  2  0
 23 22  1  1
 23 24  1  0
 24 25  1  0
 25 26  1  0
 26 27  2  0
 27 28  1  0
 28 29  2  0
 23 30  1  0
 30 31  1  0
 31 32  2  0
 32 33  1  0
 33 34  2  0
 34 35  1  0
 35 36  2  0
 36 37  1  0
 37 38  1  0
 38 39  2  0
 39 40  1  0
 40 41  2  0
 41 42  1  0
 41 43  1  0
 43 44  2  0
 44 45  1  0
 36 46  1  0
 46 47  2  0
 46 48  1  0
 48 49  1  0
 48 50  1  0
 50 51  2  0
 29 25  1  0
 51 31  1  0
 50 34  1  0
 44 38  1  0
M  RAD  1  12   2
M  END

