
     RDKit          3D

 48 50  0  0  0  0  0  0  0  0999 V2000
   -3.2369    3.3751    0.7698 C   0  0  0  0  0  0  0  0  0  0  0  0
   -2.8770    3.1498   -0.6203 C   0  0  0  0  0  0  0  0  0  0  0  0
   -2.5674    1.9058   -1.1366 N   0  0  0  0  0  0  0  0  0  0  0  0
   -1.4729    1.0938   -0.6583 C   0  0  0  0  0  0  0  0  0  0  0  0
   -0.7394    1.4116    0.2553 O   0  0  0  0  0  0  0  0  0  0  0  0
   -1.2961   -0.2670   -1.4538 C   0  0  2  0  0  0  0  0  0  0  0  0
   -1.5545   -1.3456   -0.2879 C   0  0  0  0  0  0  0  0  0  0  0  0
   -2.9371   -1.1677    0.2288 C   0  0  0  0  0  0  0  0  0  0  0  0
   -3.1412   -2.2643    1.3165 C   0  0  0  0  0  0  0  0  0  0  0  0
   -3.0631    0.1454    0.9654 C   0  0  0  0  0  0  0  0  0  0  0  0
    0.2753   -0.3218   -1.4738 N   0  0  0  0  0  0  0  0  0  0  0  0
    1.0222   -0.5867   -0.3783 C   0  0  0  0  0  0  0  0  0  0  0  0
    0.5310   -0.7930    0.7312 O   0  0  0  0  0  0  0  0  0  0  0  0
    2.4903   -0.6369   -0.4888 C   0  0  0  0  0  0  0  0  0  0  0  0
    3.1994   -0.8734    0.8130 C   0  0  0  0  0  0  0  0  0  0  0  0
    4.6480   -0.9235    0.5435 C   0  0  0  0  0  0  0  0  0  0  0  0
    5.6683   -0.9188    1.5422 N   0  0  0  0  0  0  0  0  0  0  0  0
    5.0509   -0.9826   -0.6682 O   0  0  0  0  0  0  0  0  0  0  0  0
    4.3590   -1.5089    1.1553 C   0  0  0  0  0  0  0  0  0  0  0  0
    4.8914   -1.6967   -0.3970 C   0  0  2  0  0  0  0  0  0  0  0  0
    4.7077   -0.1135   -0.8029 C   0  0  0  0  0  0  0  0  0  0  0  0
    5.5507    0.6307    0.0744 N   0  0  0  0  0  0  0  0  0  0  0  0
    5.1161    1.0827    1.2378 N   0  0  0  0  0  0  0  0  0  0  0  0
    6.0677    1.7399    1.8748 C   0  0  0  0  0  0  0  0  0  0  0  0
    7.1447    1.6953    1.0714 N   0  0  0  0  0  0  0  0  0  0  0  0
    6.8043    1.0178   -0.0116 N   0  0  0  0  0  0  0  0  0  0  0  0
    3.5022   -2.1576   -0.9347 N   0  0  0  0  0  0  0  0  0  0  0  0
    2.3896   -1.3285   -0.7538 C   0  0  0  0  0  0  0  0  0  0  0  0
    2.5303   -0.1544   -0.1211 N   0  0  0  0  0  0  0  0  0  0  0  0
    1.5232    0.6981    0.0949 C   0  0  0  0  0  0  0  0  0  0  0  0
    0.2714    0.3509   -0.3579 C   0  0  0  0  0  0  0  0  0  0  0  0
   -0.8286    1.1639   -0.1826 C   0  0  0  0  0  0  0  0  0  0  0  0
   -2.0256    0.7180   -0.6738 C   0  0  0  0  0  0  0  0  0  0  0  0
   -3.1480    1.5131   -0.5126 O   0  0  0  0  0  0  0  0  0  0  0  0
   -4.2614    1.0687    0.1863 C   0  0  0  0  0  0  0  0  0  0  0  0
   -5.5077    0.9665   -0.3953 C   0  0  0  0  0  0  0  0  0  0  0  0
   -6.5943    0.5138    0.3526 C   0  0  0  0  0  0  0  0  0  0  0  0
   -6.4773    0.1548    1.6789 C   0  0  0  0  0  0  0  0  0  0  0  0
   -7.5459   -0.2841    2.3926 F   0  0  0  0  0  0  0  0  0  0  0  0
   -5.2285    0.2592    2.2548 C   0  0  0  0  0  0  0  0  0  0  0  0
   -4.1347    0.7124    1.5106 C   0  0  0  0  0  0  0  0  0  0  0  0
   -2.9069    0.8145    2.0787 F   0  0  0  0  0  0  0  0  0  0  0  0
   -2.1127   -0.4998   -1.3172 C   0  0  0  0  0  0  0  0  0  0  0  0
   -3.2148   -0.9352   -1.7823 O   0  0  0  0  0  0  0  0  0  0  0  0
   -1.0454   -1.2919   -1.4890 N   0  0  0  0  0  0  0  0  0  0  0  0
   -1.1460   -2.5779   -2.1703 C   0  0  0  0  0  0  0  0  0  0  0  0
    0.1392   -0.8535   -1.0043 C   0  0  0  0  0  0  0  0  0  0  0  0
    1.1801   -1.6983   -1.2089 N   0  0  0  0  0  0  0  0  0  0  0  0
  1  2  1  0
  2  3  1  0
  3  4  1  0
  4  5  2  0
  4  6  1  0
  6  7  1  1
  7  8  1  0
  8  9  1  0
  8 10  1  0
  6 11  1  0
 11 12  1  0
 12 13  2  0
 12 14  1  0
 14 15  1  0
 15 16  1  0
 16 17  1  0
 16 18  2  0
 20 19  1  1
 20 21  1  0
 21 22  1  0
 22 23  1  0
 23 24  2  0
 24 25  1  0
 25 26  2  0
 20 27  1  0
 27 28  1  0
 28 29  2  0
 29 30  1  0
 30 31  2  0
 31 32  1  0
 32 33  2  0
 33 34  1  0
 34 35  1  0
 35 36  2  0
 36 37  1  0
 37 38  2  0
 38 39  1  0
 38 40  1  0
 40 41  2  0
 41 42  1  0
 33 43  1  0
 43 44  2  0
 43 45  1  0
 45 46  1  0
 45 47  1  0
 47 48  2  0
 26 22  1  0
 48 28  1  0
 47 31  1  0
 41 35  1  0
M  END

