
     RDKit          3D

 59 64  0  0  0  0  0  0  0  0999 V2000
    2.0499    6.4520   -0.3793 C   0  0  0  0  0  0  0  0  0  0  0  0
    2.8903    4.9737   -1.0307 S   0  0  0  0  0  0  0  0  0  0  0  0
    3.0936    3.7540    0.3083 C   0  0  0  0  0  0  0  0  0  0  0  0
    1.7047    3.2595    0.7352 C   0  0  0  0  0  0  0  0  0  0  0  0
    1.1448    2.6087   -0.6818 C   0  0  2  0  0  0  0  0  0  0  0  0
   -0.2421    2.1640   -0.0748 N   0  0  0  0  0  0  0  0  0  0  0  0
   -1.0680    1.3745   -0.8739 C   0  0  0  0  0  0  0  0  0  0  0  0
   -0.6707    1.0617   -2.0266 O   0  0  0  0  0  0  0  0  0  0  0  0
   -2.3778    0.8886   -0.4387 C   0  0  0  0  0  0  0  0  0  0  0  0
   -3.0937    0.0602   -1.4662 C   0  0  0  0  0  0  0  0  0  0  0  0
   -4.3889   -0.3498   -0.8661 C   0  0  0  0  0  0  0  0  0  0  0  0
   -5.6631    0.1085   -1.0768 C   0  0  0  0  0  0  0  0  0  0  0  0
   -6.5183   -0.5864   -0.2869 N   0  0  0  0  0  0  0  0  0  0  0  0
   -5.8215   -1.4736    0.4198 C   0  0  0  0  0  0  0  0  0  0  0  0
   -6.2050   -2.4174    1.3620 C   0  0  0  0  0  0  0  0  0  0  0  0
   -5.2802   -3.2344    1.9659 C   0  0  0  0  0  0  0  0  0  0  0  0
   -3.9605   -3.1180    1.6351 C   0  0  0  0  0  0  0  0  0  0  0  0
   -3.5507   -2.1768    0.6910 C   0  0  0  0  0  0  0  0  0  0  0  0
   -4.4962   -1.3507    0.0821 C   0  0  0  0  0  0  0  0  0  0  0  0
    1.8709    1.2107   -0.5549 C   0  0  0  0  0  0  0  0  0  0  0  0
    1.3461    0.2121   -0.1021 O   0  0  0  0  0  0  0  0  0  0  0  0
    3.1958    1.1596   -1.0011 N   0  0  0  0  0  0  0  0  0  0  0  0
    4.0206   -0.0583   -0.9587 C   0  0  0  0  0  0  0  0  0  0  0  0
    4.1639   -0.5496    0.4639 C   0  0  0  0  0  0  0  0  0  0  0  0
    4.9948   -1.7801    0.4829 C   0  0  0  0  0  0  0  0  0  0  0  0
    4.4610   -3.0473    0.3653 C   0  0  0  0  0  0  0  0  0  0  0  0
    5.4648   -3.9514    0.4183 N   0  0  0  0  0  0  0  0  0  0  0  0
    6.6093   -3.2588    0.5675 C   0  0  0  0  0  0  0  0  0  0  0  0
    6.3263   -1.9354    0.6069 N   0  0  0  0  0  0  0  0  0  0  0  0
   -6.0504    1.5372   -0.8420 C   0  0  0  0  0  0  0  0  0  0  0  0
   -4.5123    1.0187   -1.1168 C   0  0  2  0  0  0  0  0  0  0  0  0
   -4.8327   -0.5669   -0.8737 C   0  0  0  0  0  0  0  0  0  0  0  0
   -5.3297   -0.7732    0.4370 N   0  0  0  0  0  0  0  0  0  0  0  0
   -6.6272   -0.7228    0.7260 N   0  0  0  0  0  0  0  0  0  0  0  0
   -6.8391   -0.9503    2.0272 C   0  0  0  0  0  0  0  0  0  0  0  0
   -5.6223   -1.1482    2.5587 N   0  0  0  0  0  0  0  0  0  0  0  0
   -4.7423   -1.0357    1.5820 N   0  0  0  0  0  0  0  0  0  0  0  0
   -4.0493    1.2858    0.3588 N   0  0  0  0  0  0  0  0  0  0  0  0
   -2.6837    0.9509    0.5770 C   0  0  0  0  0  0  0  0  0  0  0  0
   -2.1951    1.1451    1.8120 N   0  0  0  0  0  0  0  0  0  0  0  0
   -0.8954    0.8478    2.0980 C   0  0  0  0  0  0  0  0  0  0  0  0
   -0.0487    0.3421    1.1347 C   0  0  0  0  0  0  0  0  0  0  0  0
    1.2732    0.0264    1.3766 C   0  0  0  0  0  0  0  0  0  0  0  0
    2.0698   -0.4834    0.3447 C   0  0  0  0  0  0  0  0  0  0  0  0
    3.4056   -0.8106    0.5590 O   0  0  0  0  0  0  0  0  0  0  0  0
    4.4393   -0.2084   -0.1418 C   0  0  0  0  0  0  0  0  0  0  0  0
    4.1648    0.7453   -1.0838 C   0  0  0  0  0  0  0  0  0  0  0  0
    5.2217    1.3376   -1.7765 C   0  0  0  0  0  0  0  0  0  0  0  0
    6.5258    0.9655   -1.5139 C   0  0  0  0  0  0  0  0  0  0  0  0
    7.5449    1.5627   -2.2083 F   0  0  0  0  0  0  0  0  0  0  0  0
    6.7425    0.0080   -0.5630 C   0  0  0  0  0  0  0  0  0  0  0  0
    5.7220   -0.6065    0.1490 C   0  0  0  0  0  0  0  0  0  0  0  0
    6.0218   -1.5498    1.0783 F   0  0  0  0  0  0  0  0  0  0  0  0
    1.5271   -0.6640   -0.8972 C   0  0  0  0  0  0  0  0  0  0  0  0
    2.2660   -1.1273   -1.8191 O   0  0  0  0  0  0  0  0  0  0  0  0
    0.2412   -0.3456   -1.0909 N   0  0  0  0  0  0  0  0  0  0  0  0
   -0.3090   -0.5444   -2.4082 C   0  0  0  0  0  0  0  0  0  0  0  0
   -0.5686    0.1479   -0.1331 C   0  0  0  0  0  0  0  0  0  0  0  0
   -1.8598    0.4615   -0.3505 N   0  0  0  0  0  0  0  0  0  0  0  0
  1  2  1  0
  2  3  1  0
  3  4  1  0
  5  4  1  1
  5  6  1  0
  6  7  1  0
  7  8  2  0
  7  9  1  0
  9 10  1  0
 10 11  1  0
 11 12  2  0
 12 13  1  0
 13 14  1  0
 14 15  2  0
 15 16  1  0
 16 17  2  0
 17 18  1  0
 18 19  2  0
  5 20  1  0
 20 21  2  0
 20 22  1  0
 22 23  1  0
 23 24  1  0
 24 25  1  0
 25 26  2  0
 26 27  1  0
 27 28  1  0
 28 29  2  0
 31 30  1  1
 31 32  1  0
 32 33  1  0
 33 34  1  0
 34 35  2  0
 35 36  1  0
 36 37  2  0
 31 38  1  0
 38 39  1  0
 39 40  2  0
 40 41  1  0
 41 42  2  0
 42 43  1  0
 43 44  2  0
 44 45  1  0
 45 46  1  0
 46 47  2  0
 47 48  1  0
 48 49  2  0
 49 50  1  0
 49 51  1  0
 51 52  2  0
 52 53  1  0
 44 54  1  0
 54 55  2  0
 54 56  1  0
 56 57  1  0
 56 58  1  0
 58 59  2  0
 19 11  1  0
 29 25  1  0
 37 33  1  0
 59 39  1  0
 19 14  1  0
 58 42  1  0
 52 46  1  0
M  END

