
     RDKit          3D

 50 52  0  0  0  0  0  0  0  0999 V2000
    4.4125    0.1343   -2.2602 C   0  0  0  0  0  0  0  0  0  0  0  0
    4.7293    0.8845   -0.8256 C   0  0  2  0  0  0  0  0  0  0  0  0
    6.1004   -0.0056   -0.5687 C   0  0  0  0  0  0  0  0  0  0  0  0
    6.5121    0.5671    0.7168 N   0  0  0  0  0  0  0  0  0  0  0  0
    7.3098    1.6133    0.8457 N   0  0  0  0  0  0  0  0  0  0  0  0
    7.4481    1.8291    2.1480 C   0  0  0  0  0  0  0  0  0  0  0  0
    6.7393    0.9216    2.8505 N   0  0  0  0  0  0  0  0  0  0  0  0
    6.1710    0.1538    1.9269 N   0  0  0  0  0  0  0  0  0  0  0  0
    3.8223   -0.0983   -0.0009 N   0  0  0  0  0  0  0  0  0  0  0  0
    2.4554   -0.0315   -0.4627 C   0  0  0  0  0  0  0  0  0  0  0  0
    2.0539    0.7718   -1.4614 N   0  0  0  0  0  0  0  0  0  0  0  0
    0.8142    0.8812   -1.9340 C   0  0  0  0  0  0  0  0  0  0  0  0
   -0.1642    0.0949   -1.3460 C   0  0  0  0  0  0  0  0  0  0  0  0
   -1.4803    0.1340   -1.7629 C   0  0  0  0  0  0  0  0  0  0  0  0
   -2.4077   -0.6681   -1.1429 C   0  0  0  0  0  0  0  0  0  0  0  0
   -3.7242   -0.6342   -1.5541 O   0  0  0  0  0  0  0  0  0  0  0  0
   -4.7620   -0.2856   -0.7229 C   0  0  0  0  0  0  0  0  0  0  0  0
   -5.7600   -1.2430   -0.5192 C   0  0  0  0  0  0  0  0  0  0  0  0
   -6.8011   -0.9081    0.3078 C   0  0  0  0  0  0  0  0  0  0  0  0
   -6.8574    0.3418    0.9201 C   0  0  0  0  0  0  0  0  0  0  0  0
   -7.9059    0.5883    1.7111 F   0  0  0  0  0  0  0  0  0  0  0  0
   -5.8783    1.2715    0.7158 C   0  0  0  0  0  0  0  0  0  0  0  0
   -4.8119    0.9570   -0.1182 C   0  0  0  0  0  0  0  0  0  0  0  0
   -3.8192    1.8635   -0.3419 F   0  0  0  0  0  0  0  0  0  0  0  0
   -1.9965   -1.4913   -0.1196 C   0  0  0  0  0  0  0  0  0  0  0  0
   -2.8895   -2.2282    0.4382 O   0  0  0  0  0  0  0  0  0  0  0  0
   -0.7311   -1.5047    0.2546 N   0  0  0  0  0  0  0  0  0  0  0  0
   -0.3135   -2.3759    1.3325 C   0  0  0  0  0  0  0  0  0  0  0  0
    0.2278   -0.7374   -0.3181 C   0  0  0  0  0  0  0  0  0  0  0  0
    1.5068   -0.7958    0.1095 N   0  0  0  0  0  0  0  0  0  0  0  0
   -5.1119   -1.2528   -0.4809 O   0  0  0  0  0  1  0  0  0  0  0  0
   -4.9630   -0.1879    0.3547 C   0  0  0  0  0  0  0  0  0  0  0  0
   -5.8967    0.6358    0.4768 O   0  0  0  0  0  0  0  0  0  0  0  0
   -3.7103   -0.0154    1.1067 C   0  0  0  0  0  0  0  0  0  0  0  0
   -3.7341    1.1281    2.0528 C   0  0  0  0  0  0  0  0  0  0  0  0
   -2.4558    1.2350    2.7854 C   0  0  0  0  0  0  0  0  0  0  0  0
   -1.2689    1.4782    2.0900 N   0  0  0  0  0  0  0  0  0  0  0  0
   -0.6226    0.7859    1.0758 C   0  0  0  0  0  0  0  0  0  0  0  0
   -1.0668   -0.2463    0.5925 O   0  0  0  0  0  0  0  0  0  0  0  0
    0.7435    1.3150    0.4946 C   0  0  2  0  0  0  0  0  0  0  0  0
    0.0856    2.4470   -0.5109 C   0  0  0  0  0  0  0  0  0  0  0  0
   -0.9856    1.6265   -1.6606 S   0  0  0  0  0  0  0  0  0  0  0  0
    0.9486    0.2347   -0.6232 N   0  0  0  0  0  0  0  0  0  0  0  0
    2.2273   -0.3926   -0.5772 C   0  0  0  0  0  0  0  0  0  0  0  0
    3.0928   -0.0999    0.2843 O   0  0  0  0  0  0  0  0  0  0  0  0
    2.6051   -1.4443   -1.5669 C   0  0  0  0  0  0  0  0  0  0  0  0
    4.0185   -1.9076   -1.3470 C   0  0  0  0  0  0  0  0  0  0  0  0
    5.0277   -0.8566   -1.4802 C   0  0  0  0  0  0  0  0  0  0  0  0
    6.3777   -1.1140   -1.3262 O   0  0  0  0  0  1  0  0  0  0  0  0
    4.6892    0.3145   -1.7402 O   0  0  0  0  0  0  0  0  0  0  0  0
  2  1  1  6
  2  3  1  0
  3  4  1  0
  4  5  1  0
  5  6  2  0
  6  7  1  0
  7  8  2  0
  2  9  1  0
  9 10  1  0
 10 11  2  0
 11 12  1  0
 12 13  2  0
 13 14  1  0
 14 15  2  0
 15 16  1  0
 16 17  1  0
 17 18  2  0
 18 19  1  0
 19 20  2  0
 20 21  1  0
 20 22  1  0
 22 23  2  0
 23 24  1  0
 15 25  1  0
 25 26  2  0
 25 27  1  0
 27 28  1  0
 27 29  1  0
 29 30  2  0
 31 32  1  0
 32 33  2  0
 32 34  1  0
 34 35  1  0
 35 36  1  0
 36 37  1  0
 37 38  1  0
 38 39  2  0
 38 40  1  0
 40 41  1  6
 41 42  1  0
 40 43  1  0
 43 44  1  0
 44 45  2  0
 44 46  1  0
 46 47  1  0
 47 48  1  0
 48 49  1  0
 48 50  2  0
  8  4  1  0
 30 10  1  0
 29 13  1  0
 23 17  1  0
M  RAD  2  31   2  49   2
M  END

