
     RDKit          3D

 56 60  0  0  0  0  0  0  0  0999 V2000
   -4.1672   -0.6132   -0.8546 C   0  0  0  0  0  0  0  0  0  0  0  0
   -4.8044    0.1426    0.4781 C   0  0  2  0  0  0  0  0  0  0  0  0
   -5.8413    1.0546   -0.4460 C   0  0  0  0  0  0  0  0  0  0  0  0
   -6.6124   -0.0222   -1.0944 N   0  0  0  0  0  0  0  0  0  0  0  0
   -6.3504   -0.6273   -2.2319 N   0  0  0  0  0  0  0  0  0  0  0  0
   -7.2721   -1.5566   -2.5067 C   0  0  0  0  0  0  0  0  0  0  0  0
   -8.1392   -1.5125   -1.4809 N   0  0  0  0  0  0  0  0  0  0  0  0
   -7.7168   -0.5789   -0.6451 N   0  0  0  0  0  0  0  0  0  0  0  0
   -3.6785    1.2545    0.4896 N   0  0  0  0  0  0  0  0  0  0  0  0
   -2.3932    0.6719    0.6567 C   0  0  0  0  0  0  0  0  0  0  0  0
   -2.1624   -0.6444    0.7873 N   0  0  0  0  0  0  0  0  0  0  0  0
   -0.9808   -1.2277    0.9449 C   0  0  0  0  0  0  0  0  0  0  0  0
    0.1207   -0.3695    0.9752 C   0  0  0  0  0  0  0  0  0  0  0  0
    1.3697   -0.9293    1.1370 C   0  0  0  0  0  0  0  0  0  0  0  0
    2.4696   -0.0995    1.1696 C   0  0  0  0  0  0  0  0  0  0  0  0
    3.7065   -0.6862    1.3325 O   0  0  0  0  0  0  0  0  0  0  0  0
    4.7508   -0.6061    0.4551 C   0  0  0  0  0  0  0  0  0  0  0  0
    5.9416   -0.0387    0.9135 C   0  0  0  0  0  0  0  0  0  0  0  0
    7.0066    0.0488    0.0368 C   0  0  0  0  0  0  0  0  0  0  0  0
    6.9364   -0.4013   -1.2668 C   0  0  0  0  0  0  0  0  0  0  0  0
    7.9868   -0.3138   -2.1278 F   0  0  0  0  0  0  0  0  0  0  0  0
    5.7425   -0.9526   -1.6723 C   0  0  0  0  0  0  0  0  0  0  0  0
    4.6402   -1.0672   -0.8385 C   0  0  0  0  0  0  0  0  0  0  0  0
    3.4710   -1.6161   -1.2637 F   0  0  0  0  0  0  0  0  0  0  0  0
    2.2483    1.2454    1.0373 C   0  0  0  0  0  0  0  0  0  0  0  0
    3.2602    1.9936    1.0685 O   0  0  0  0  0  0  0  0  0  0  0  0
    1.0253    1.7799    0.8801 N   0  0  0  0  0  0  0  0  0  0  0  0
    0.8189    3.2193    0.7414 C   0  0  0  0  0  0  0  0  0  0  0  0
   -0.0699    0.9892    0.8447 C   0  0  0  0  0  0  0  0  0  0  0  0
   -1.3065    1.4632    0.6912 N   0  0  0  0  0  0  0  0  0  0  0  0
   -1.8237    1.7764   -2.0331 N   0  0  0  0  0  0  0  0  0  0  0  0
   -2.6942    2.0355   -0.9397 C   0  0  0  0  0  0  0  0  0  0  0  0
   -3.3587    3.1333   -0.9304 N   0  0  0  0  0  4  0  0  0  0  0  0
   -2.7967    1.0686    0.1028 N   0  0  0  0  0  0  0  0  0  0  0  0
   -3.6872    1.3395    1.2149 C   0  0  0  0  0  0  0  0  0  0  0  0
   -3.6140    0.1734    2.1695 C   0  0  0  0  0  0  0  0  0  0  0  0
   -4.0234   -1.1073    1.5218 C   0  0  0  0  0  0  0  0  0  0  0  0
   -3.2058   -1.5309    0.3538 C   0  0  0  0  0  0  0  0  0  0  0  0
   -1.7821   -1.7454    0.6609 C   0  0  0  0  0  0  0  0  0  0  0  0
   -1.4031   -1.5378    1.8418 O   0  0  0  0  0  0  0  0  0  0  0  0
   -0.9436   -2.1675   -0.3852 N   0  0  0  0  0  0  0  0  0  0  0  0
   -1.1856   -2.4386   -1.7245 C   0  0  0  0  0  0  0  0  0  0  0  0
    0.1072   -2.6391   -2.4280 C   0  0  0  0  0  0  0  0  0  0  0  0
    0.7640   -3.4812   -1.3730 C   0  0  0  0  0  0  0  0  0  0  0  0
    0.5839   -2.4120   -0.0825 C   0  0  1  0  0  0  0  0  0  0  0  0
    1.1280   -1.1532   -0.8788 C   0  0  0  0  0  0  0  0  0  0  0  0
    0.3886   -0.3859   -1.4648 O   0  0  0  0  0  0  0  0  0  0  0  0
    2.5130   -1.0103   -0.8449 N   0  0  0  0  0  0  0  0  0  0  0  0
    3.1296    0.1005   -1.5347 C   0  0  0  0  0  0  0  0  0  0  0  0
    2.6694    1.4302   -1.0358 C   0  0  0  0  0  0  0  0  0  0  0  0
    2.9746    1.6128    0.4055 C   0  0  0  0  0  0  0  0  0  0  0  0
    4.1589    2.1649    0.8490 C   0  0  0  0  0  0  0  0  0  0  0  0
    4.4110    2.3210    2.2146 C   0  0  0  0  0  0  0  0  0  0  0  0
    3.4228    1.8980    3.0882 C   0  0  0  0  0  0  0  0  0  0  0  0
    2.2633    1.3568    2.6341 C   0  0  0  0  0  0  0  0  0  0  0  0
    2.0038    1.1985    1.3067 C   0  0  0  0  0  0  0  0  0  0  0  0
  2  1  1  6
  2  3  1  0
  3  4  1  0
  4  5  1  0
  5  6  2  0
  6  7  1  0
  7  8  2  0
  2  9  1  0
  9 10  1  0
 10 11  2  0
 11 12  1  0
 12 13  2  0
 13 14  1  0
 14 15  2  0
 15 16  1  0
 16 17  1  0
 17 18  2  0
 18 19  1  0
 19 20  2  0
 20 21  1  0
 20 22  1  0
 22 23  2  0
 23 24  1  0
 15 25  1  0
 25 26  2  0
 25 27  1  0
 27 28  1  0
 27 29  1  0
 29 30  2  0
 31 32  1  0
 32 33  2  0
 32 34  1  0
 34 35  1  0
 35 36  1  0
 36 37  1  0
 37 38  1  0
 38 39  1  0
 39 40  2  0
 39 41  1  0
 41 42  1  0
 42 43  1  0
 43 44  1  0
 44 45  1  0
 45 46  1  6
 46 47  2  0
 46 48  1  0
 48 49  1  0
 49 50  1  0
 50 51  1  0
 51 52  2  0
 52 53  1  0
 53 54  2  0
 54 55  1  0
 55 56  2  0
  8  4  1  0
 30 10  1  0
 45 41  1  0
 56 51  1  0
 29 13  1  0
 23 17  1  0
M  CHG  1  33   1
M  END

