
     RDKit          3D

 51 54  0  0  0  0  0  0  0  0999 V2000
    5.2838    2.1570    0.1216 C   0  0  0  0  0  0  0  0  0  0  0  0
    5.3161    0.6579   -0.1690 C   0  0  0  0  0  0  0  0  0  0  0  0
    5.3553    0.4304   -1.6871 C   0  0  0  0  0  0  0  0  0  0  0  0
    4.0078    0.1201    0.3800 C   0  0  0  0  0  0  0  0  0  0  0  0
    2.8483    0.8073   -0.3383 C   0  0  0  0  0  0  0  0  0  0  0  0
    1.5509    0.3479    0.1503 C   0  0  0  0  0  0  0  0  0  0  0  0
    1.5205   -0.4992    1.0796 O   0  0  0  0  0  0  0  0  0  0  0  0
    0.3604    0.8604   -0.4282 N   0  0  0  0  0  0  0  0  0  0  0  0
   -0.9571    0.2579    0.2327 C   0  0  1  0  0  0  0  0  0  0  0  0
   -1.9499    1.0196   -0.8826 C   0  0  0  0  0  0  0  0  0  0  0  0
   -1.6345    2.5083   -0.6886 C   0  0  0  0  0  0  0  0  0  0  0  0
   -1.9422    2.8999    0.7244 C   0  0  0  0  0  0  0  0  0  0  0  0
   -3.3885    2.6637    1.0388 C   0  0  0  0  0  0  0  0  0  0  0  0
   -3.6461    3.0614    2.4231 N   0  0  0  0  0  4  0  0  0  0  0  0
   -0.9237   -1.1167   -0.6277 C   0  0  0  0  0  0  0  0  0  0  0  0
   -0.4212   -1.0544   -1.7439 O   0  0  0  0  0  0  0  0  0  0  0  0
   -1.4779   -2.2299    0.0148 N   0  0  0  0  0  0  0  0  0  0  0  0
   -1.5667   -3.5421   -0.5340 C   0  0  0  0  0  0  0  0  0  0  0  0
   -2.9940   -3.9265   -0.1998 C   0  0  0  0  0  0  0  0  0  0  0  0
   -3.2934   -3.1249    1.0490 C   0  0  0  0  0  0  0  0  0  0  0  0
   -2.0479   -2.2981    1.3213 C   0  0  0  0  0  0  0  0  0  0  0  0
   -4.2797   -2.2800    1.3704 C   0  0  0  0  0  0  0  0  0  0  0  0
   -4.7735   -0.6998    1.2272 C   0  0  2  0  0  0  0  0  0  0  0  0
   -6.0467   -1.1115    0.2294 C   0  0  0  0  0  0  0  0  0  0  0  0
   -6.6027    0.2280    0.0065 N   0  0  0  0  0  0  0  0  0  0  0  0
   -6.2925    1.0782   -0.9480 N   0  0  0  0  0  0  0  0  0  0  0  0
   -7.0072    2.2129   -0.8380 C   0  0  0  0  0  0  0  0  0  0  0  0
   -7.7939    2.0191    0.2574 N   0  0  0  0  0  0  0  0  0  0  0  0
   -7.5279    0.8160    0.7436 N   0  0  0  0  0  0  0  0  0  0  0  0
   -3.8058   -0.4282   -0.0024 N   0  0  0  0  0  0  0  0  0  0  0  0
   -2.4291   -0.6339    0.3263 C   0  0  0  0  0  0  0  0  0  0  0  0
   -2.0040   -1.0150    1.5421 N   0  0  0  0  0  0  0  0  0  0  0  0
   -0.7107   -1.2051    1.8401 C   0  0  0  0  0  0  0  0  0  0  0  0
    0.2138   -0.9949    0.8382 C   0  0  0  0  0  0  0  0  0  0  0  0
    1.5537   -1.1807    1.1075 C   0  0  0  0  0  0  0  0  0  0  0  0
    2.4843   -0.9715    0.1077 C   0  0  0  0  0  0  0  0  0  0  0  0
    3.8487   -1.1347    0.2899 O   0  0  0  0  0  0  0  0  0  0  0  0
    4.6812   -0.0547    0.0962 C   0  0  0  0  0  0  0  0  0  0  0  0
    4.2043    1.1714   -0.2657 C   0  0  0  0  0  0  0  0  0  0  0  0
    5.0417    2.2387   -0.4556 C   0  0  0  0  0  0  0  0  0  0  0  0
    6.3859    2.0783   -0.2802 C   0  0  0  0  0  0  0  0  0  0  0  0
    7.2858    3.0802   -0.4471 F   0  0  0  0  0  0  0  0  0  0  0  0
    6.8634    0.8390    0.0851 C   0  0  0  0  0  0  0  0  0  0  0  0
    6.0383   -0.2242    0.2752 C   0  0  0  0  0  0  0  0  0  0  0  0
    6.5692   -1.4273    0.6366 F   0  0  0  0  0  0  0  0  0  0  0  0
    2.0346   -0.5811   -1.1346 C   0  0  0  0  0  0  0  0  0  0  0  0
    2.8323   -0.3767   -2.0812 O   0  0  0  0  0  0  0  0  0  0  0  0
    0.7178   -0.4102   -1.3581 N   0  0  0  0  0  0  0  0  0  0  0  0
    0.2593    0.0033   -2.6786 C   0  0  0  0  0  0  0  0  0  0  0  0
   -0.2135   -0.6026   -0.4166 C   0  0  0  0  0  0  0  0  0  0  0  0
   -1.5270   -0.4331   -0.6363 N   0  0  0  0  0  0  0  0  0  0  0  0
  1  2  1  0
  2  3  1  0
  2  4  1  0
  4  5  1  0
  5  6  1  0
  6  7  2  0
  6  8  1  0
  8  9  1  0
  9 10  1  6
 10 11  1  0
 11 12  1  0
 12 13  1  0
 13 14  1  0
  9 15  1  0
 15 16  2  0
 15 17  1  0
 17 18  1  0
 18 19  1  0
 19 20  1  0
 20 21  1  0
 23 22  1  1
 23 24  1  0
 24 25  1  0
 25 26  1  0
 26 27  2  0
 27 28  1  0
 28 29  2  0
 23 30  1  0
 30 31  1  0
 31 32  2  0
 32 33  1  0
 33 34  2  0
 34 35  1  0
 35 36  2  0
 36 37  1  0
 37 38  1  0
 38 39  2  0
 39 40  1  0
 40 41  2  0
 41 42  1  0
 41 43  1  0
 43 44  2  0
 44 45  1  0
 36 46  1  0
 46 47  2  0
 46 48  1  0
 48 49  1  0
 48 50  1  0
 50 51  2  0
 21 17  1  0
 29 25  1  0
 51 31  1  0
 50 34  1  0
 44 38  1  0
M  CHG  1  14   1
M  END

