
     RDKit          3D

 55 59  0  0  0  0  0  0  0  0999 V2000
    4.9186    1.5494    1.5899 C   0  0  0  0  0  0  0  0  0  0  0  0
    4.7987    0.1679    2.4706 C   0  0  2  0  0  0  0  0  0  0  0  0
    6.0662   -0.5643    1.7405 C   0  0  0  0  0  0  0  0  0  0  0  0
    5.8096   -0.6724    0.3507 N   0  0  0  0  0  0  0  0  0  0  0  0
    6.1246    0.2152   -0.5710 N   0  0  0  0  0  0  0  0  0  0  0  0
    5.7012   -0.2785   -1.7664 C   0  0  0  0  0  0  0  0  0  0  0  0
    5.1326   -1.4642   -1.5518 N   0  0  0  0  0  0  0  0  0  0  0  0
    5.2063   -1.6895   -0.2603 N   0  0  0  0  0  0  0  0  0  0  0  0
    3.7265   -0.4705    1.5377 N   0  0  0  0  0  0  0  0  0  0  0  0
    2.5101    0.2174    1.3805 C   0  0  0  0  0  0  0  0  0  0  0  0
    2.1465    1.3571    1.9295 N   0  0  0  0  0  0  0  0  0  0  0  0
    0.9325    1.8906    1.6749 C   0  0  0  0  0  0  0  0  0  0  0  0
    0.0425    1.2413    0.8243 C   0  0  0  0  0  0  0  0  0  0  0  0
   -1.2077    1.7421    0.5311 C   0  0  0  0  0  0  0  0  0  0  0  0
   -2.0142    1.0216   -0.3240 C   0  0  0  0  0  0  0  0  0  0  0  0
   -3.2981    1.4427   -0.6846 O   0  0  0  0  0  0  0  0  0  0  0  0
   -4.3975    0.6463   -0.3966 C   0  0  0  0  0  0  0  0  0  0  0  0
   -5.2473    0.1475   -1.3652 C   0  0  0  0  0  0  0  0  0  0  0  0
   -6.3302   -0.6441   -1.0079 C   0  0  0  0  0  0  0  0  0  0  0  0
   -6.5706   -0.9422    0.3186 C   0  0  0  0  0  0  0  0  0  0  0  0
   -7.6324   -1.7216    0.7006 F   0  0  0  0  0  0  0  0  0  0  0  0
   -5.7293   -0.4481    1.2748 C   0  0  0  0  0  0  0  0  0  0  0  0
   -4.6527    0.3407    0.9011 C   0  0  0  0  0  0  0  0  0  0  0  0
   -3.8427    0.8110    1.8766 F   0  0  0  0  0  0  0  0  0  0  0  0
   -1.5986   -0.1644   -0.8771 C   0  0  0  0  0  0  0  0  0  0  0  0
   -2.3237   -0.8467   -1.6679 O   0  0  0  0  0  0  0  0  0  0  0  0
   -0.4029   -0.6388   -0.5937 N   0  0  0  0  0  0  0  0  0  0  0  0
    0.0670   -1.8911   -1.1625 C   0  0  0  0  0  0  0  0  0  0  0  0
    0.4218    0.0469    0.2481 C   0  0  0  0  0  0  0  0  0  0  0  0
    1.6433   -0.4013    0.5608 N   0  0  0  0  0  0  0  0  0  0  0  0
   -5.3201   -3.7175   -0.9978 O   0  0  0  0  0  1  0  0  0  0  0  0
   -5.4278   -2.5289   -0.2952 C   0  0  0  0  0  0  0  0  0  0  0  0
   -6.5246   -2.2235    0.2349 O   0  0  0  0  0  0  0  0  0  0  0  0
   -4.2756   -1.6092   -0.1557 C   0  0  0  0  0  0  0  0  0  0  0  0
   -3.6537   -1.7432    1.2371 C   0  0  0  0  0  0  0  0  0  0  0  0
   -2.5317   -0.8243    1.3263 N   0  0  0  0  0  0  0  0  0  0  0  0
   -1.4097   -0.8902    0.4663 C   0  0  0  0  0  0  0  0  0  0  0  0
   -1.2800   -1.7113   -0.4176 O   0  0  0  0  0  0  0  0  0  0  0  0
   -0.2739    0.1935    0.7053 C   0  0  2  0  0  0  0  0  0  0  0  0
   -1.0015    1.3499   -0.2557 C   0  0  0  0  0  0  0  0  0  0  0  0
   -0.0359    2.4735   -0.1404 C   0  0  0  0  0  0  0  0  0  0  0  0
   -0.0919    3.4482    0.8118 C   0  0  0  0  0  0  0  0  0  0  0  0
    0.8424    4.4476    0.8433 C   0  0  0  0  0  0  0  0  0  0  0  0
    1.8585    4.4840   -0.0913 C   0  0  0  0  0  0  0  0  0  0  0  0
    2.7877    5.5187   -0.0223 O   0  0  0  0  0  0  0  0  0  0  0  0
    1.9129    3.5012   -1.0495 C   0  0  0  0  0  0  0  0  0  0  0  0
    0.9721    2.4977   -1.0784 C   0  0  0  0  0  0  0  0  0  0  0  0
    0.6986   -0.2749   -0.4384 N   0  0  0  0  0  0  0  0  0  0  0  0
    1.8954   -0.6394    0.1233 C   0  0  0  0  0  0  0  0  0  0  0  0
    2.1180   -0.5890    1.3286 O   0  0  0  0  0  0  0  0  0  0  0  0
    3.1101   -1.1659   -0.7629 C   0  0  2  0  0  0  0  0  0  0  0  0
    2.6258   -2.7794   -0.7373 C   0  0  0  0  0  0  0  0  0  0  0  0
    4.0001   -3.3209   -0.9489 C   0  0  0  0  0  0  0  0  0  0  0  0
    4.8869   -2.5000   -0.0676 C   0  0  0  0  0  0  0  0  0  0  0  0
    4.1181   -1.3969    0.4273 N   0  0  0  0  0  0  0  0  0  0  0  0
  2  1  1  6
  2  3  1  0
  3  4  1  0
  4  5  1  0
  5  6  2  0
  6  7  1  0
  7  8  2  0
  2  9  1  0
  9 10  1  0
 10 11  2  0
 11 12  1  0
 12 13  2  0
 13 14  1  0
 14 15  2  0
 15 16  1  0
 16 17  1  0
 17 18  2  0
 18 19  1  0
 19 20  2  0
 20 21  1  0
 20 22  1  0
 22 23  2  0
 23 24  1  0
 15 25  1  0
 25 26  2  0
 25 27  1  0
 27 28  1  0
 27 29  1  0
 29 30  2  0
 31 32  1  0
 32 33  2  0
 32 34  1  0
 34 35  1  0
 35 36  1  0
 36 37  1  0
 37 38  2  0
 37 39  1  0
 39 40  1  6
 40 41  1  0
 41 42  2  0
 42 43  1  0
 43 44  2  0
 44 45  1  0
 44 46  1  0
 46 47  2  0
 39 48  1  0
 48 49  1  0
 49 50  2  0
 51 49  1  1
 51 52  1  0
 52 53  1  0
 53 54  1  0
 54 55  1  0
  8  4  1  0
 30 10  1  0
 47 41  1  0
 55 51  1  0
 29 13  1  0
 23 17  1  0
M  RAD  1  31   2
M  END

