
     RDKit          3D

 48 51  0  0  0  0  0  0  0  0999 V2000
    5.4349    2.4426    0.3488 C   0  0  0  0  0  0  0  0  0  0  0  0
    4.8169    1.3593    1.1621 C   0  0  0  0  0  0  0  0  0  0  0  0
    4.0092    0.4619    0.3004 C   0  0  0  0  0  0  0  0  0  0  0  0
    3.9498    0.7115   -0.9190 O   0  0  0  0  0  0  0  0  0  0  0  0
    3.3471   -0.6354    0.9202 N   0  0  0  0  0  0  0  0  0  0  0  0
    2.5385   -1.4791   -0.1342 C   0  0  1  0  0  0  0  0  0  0  0  0
    2.0725   -2.5999    1.0071 C   0  0  0  0  0  0  0  0  0  0  0  0
    1.2017   -0.6717   -0.0680 C   0  0  0  0  0  0  0  0  0  0  0  0
    0.9720    0.2904    0.6175 O   0  0  0  0  0  0  0  0  0  0  0  0
    0.2275   -1.1781   -0.9154 N   0  0  0  0  0  0  0  0  0  0  0  0
   -1.0875   -0.5794   -1.0102 C   0  0  0  0  0  0  0  0  0  0  0  0
   -1.6646   -0.6766    0.4082 C   0  0  0  0  0  0  0  0  0  0  0  0
   -3.0168   -0.0652    0.3235 C   0  0  0  0  0  0  0  0  0  0  0  0
   -4.0616   -0.8952    0.0221 C   0  0  0  0  0  0  0  0  0  0  0  0
   -5.3664   -0.4422   -0.0831 C   0  0  0  0  0  0  0  0  0  0  0  0
   -5.5739    0.9041    0.1324 C   0  0  0  0  0  0  0  0  0  0  0  0
   -4.5485    1.7798    0.4393 C   0  0  0  0  0  0  0  0  0  0  0  0
   -3.2507    1.2732    0.5336 C   0  0  0  0  0  0  0  0  0  0  0  0
   -5.6580   -1.9002   -1.3402 C   0  0  0  0  0  0  0  0  0  0  0  0
   -4.6241   -1.2200   -0.2177 C   0  0  2  0  0  0  0  0  0  0  0  0
   -5.0251    0.3276   -0.6893 C   0  0  0  0  0  0  0  0  0  0  0  0
   -6.4507    0.3452   -0.4273 N   0  0  0  0  0  0  0  0  0  0  0  0
   -6.9760    0.7109    0.7137 N   0  0  0  0  0  0  0  0  0  0  0  0
   -8.2974    0.6202    0.6453 C   0  0  0  0  0  0  0  0  0  0  0  0
   -8.5887    0.1818   -0.5862 N   0  0  0  0  0  0  0  0  0  0  0  0
   -7.4517    0.0215   -1.2204 N   0  0  0  0  0  0  0  0  0  0  0  0
   -3.3895   -1.2833   -1.2068 N   0  0  0  0  0  0  0  0  0  0  0  0
   -2.2262   -0.7567   -0.5789 C   0  0  0  0  0  0  0  0  0  0  0  0
   -2.1821   -0.2744    0.6749 N   0  0  0  0  0  0  0  0  0  0  0  0
   -1.0707    0.2193    1.2498 C   0  0  0  0  0  0  0  0  0  0  0  0
    0.1069    0.2514    0.5524 C   0  0  0  0  0  0  0  0  0  0  0  0
    1.2891    0.7377    1.0604 C   0  0  0  0  0  0  0  0  0  0  0  0
    2.4165    0.7315    0.2946 C   0  0  0  0  0  0  0  0  0  0  0  0
    3.6135    1.2107    0.7740 O   0  0  0  0  0  0  0  0  0  0  0  0
    4.7595    0.4183    0.8735 C   0  0  0  0  0  0  0  0  0  0  0  0
    5.9177    0.7442    0.1940 C   0  0  0  0  0  0  0  0  0  0  0  0
    7.0405   -0.0482    0.3026 C   0  0  0  0  0  0  0  0  0  0  0  0
    7.0771   -1.1884    1.0775 C   0  0  0  0  0  0  0  0  0  0  0  0
    8.2028   -1.9495    1.1632 F   0  0  0  0  0  0  0  0  0  0  0  0
    5.9194   -1.5110    1.7544 C   0  0  0  0  0  0  0  0  0  0  0  0
    4.7906   -0.7233    1.6514 C   0  0  0  0  0  0  0  0  0  0  0  0
    3.6333   -1.0330    2.3193 F   0  0  0  0  0  0  0  0  0  0  0  0
    2.3622    0.2316   -0.9992 C   0  0  0  0  0  0  0  0  0  0  0  0
    3.3645    0.2074   -1.7298 O   0  0  0  0  0  0  0  0  0  0  0  0
    1.2151   -0.2358   -1.4802 N   0  0  0  0  0  0  0  0  0  0  0  0
    1.1771   -0.7537   -2.8329 C   0  0  0  0  0  0  0  0  0  0  0  0
    0.0956   -0.2350   -0.7341 C   0  0  0  0  0  0  0  0  0  0  0  0
   -1.0415   -0.7161   -1.2581 N   0  0  0  0  0  0  0  0  0  0  0  0
  1  2  1  0
  2  3  1  0
  3  4  2  0
  3  5  1  0
  5  6  1  0
  6  7  1  1
  6  8  1  0
  8  9  2  0
  8 10  1  0
 10 11  1  0
 11 12  1  0
 12 13  1  0
 13 14  2  0
 14 15  1  0
 15 16  2  0
 16 17  1  0
 17 18  2  0
 20 19  1  6
 20 21  1  0
 21 22  1  0
 22 23  1  0
 23 24  2  0
 24 25  1  0
 25 26  2  0
 20 27  1  0
 27 28  1  0
 28 29  2  0
 29 30  1  0
 30 31  2  0
 31 32  1  0
 32 33  2  0
 33 34  1  0
 34 35  1  0
 35 36  2  0
 36 37  1  0
 37 38  2  0
 38 39  1  0
 38 40  1  0
 40 41  2  0
 41 42  1  0
 33 43  1  0
 43 44  2  0
 43 45  1  0
 45 46  1  0
 45 47  1  0
 47 48  2  0
 18 13  1  0
 26 22  1  0
 48 28  1  0
 47 31  1  0
 41 35  1  0
M  END

