
     RDKit          3D

 44 46  0  0  0  0  0  0  0  0999 V2000
    4.0284    0.8366    1.5833 C   0  0  0  0  0  0  0  0  0  0  0  0
    3.2581   -0.0007    0.6275 C   0  0  0  0  0  0  0  0  0  0  0  0
    3.2415   -1.2384    0.7657 O   0  0  0  0  0  0  0  0  0  0  0  0
    2.5505    0.5178   -0.4112 N   0  0  0  0  0  0  0  0  0  0  0  0
    1.7329   -0.2898   -1.4270 C   0  0  1  0  0  0  0  0  0  0  0  0
    2.1457   -1.7993   -0.9448 C   0  0  0  0  0  0  0  0  0  0  0  0
    0.3625   -0.2262   -0.6200 C   0  0  0  0  0  0  0  0  0  0  0  0
    0.2286    0.2934    0.4602 O   0  0  0  0  0  0  0  0  0  0  0  0
   -0.7548   -0.8436   -1.2665 N   0  0  0  0  0  0  0  0  0  0  0  0
   -2.0059   -0.8054   -0.5599 C   0  0  0  0  0  0  0  0  0  0  0  0
   -2.4665    0.5920   -0.2483 C   0  0  0  0  0  0  0  0  0  0  0  0
   -3.7486    0.4873    0.4733 C   0  0  0  0  0  0  0  0  0  0  0  0
   -4.3298    1.6547    0.9157 O   0  0  0  0  0  1  0  0  0  0  0  0
   -4.2426   -0.6615    0.6520 O   0  0  0  0  0  0  0  0  0  0  0  0
    4.5973    2.0424    1.1996 C   0  0  0  0  0  0  0  0  0  0  0  0
    4.6668    0.9760    2.4671 C   0  0  2  0  0  0  0  0  0  0  0  0
    6.1682    0.4135    2.0861 C   0  0  0  0  0  0  0  0  0  0  0  0
    6.1268   -0.1423    0.7838 N   0  0  0  0  0  0  0  0  0  0  0  0
    6.3727    0.5899   -0.3018 N   0  0  0  0  0  0  0  0  0  0  0  0
    6.2754   -0.1502   -1.4192 C   0  0  0  0  0  0  0  0  0  0  0  0
    5.9569   -1.3792   -0.9755 N   0  0  0  0  0  0  0  0  0  0  0  0
    5.8720   -1.3572    0.3420 N   0  0  0  0  0  0  0  0  0  0  0  0
    3.9055   -0.1676    1.6882 N   0  0  0  0  0  0  0  0  0  0  0  0
    2.5962    0.2262    1.2808 C   0  0  0  0  0  0  0  0  0  0  0  0
    2.0525    1.4140    1.5161 N   0  0  0  0  0  0  0  0  0  0  0  0
    0.8279    1.7972    1.1409 C   0  0  0  0  0  0  0  0  0  0  0  0
    0.0591    0.8654    0.4425 C   0  0  0  0  0  0  0  0  0  0  0  0
   -1.1956    1.1413    0.0127 C   0  0  0  0  0  0  0  0  0  0  0  0
   -1.9765    0.1952   -0.6961 C   0  0  0  0  0  0  0  0  0  0  0  0
   -3.1958    0.5821   -1.0688 O   0  0  0  0  0  0  0  0  0  0  0  0
   -4.4979    0.3313   -0.8984 C   0  0  0  0  0  0  0  0  0  0  0  0
   -5.2463    1.3939   -0.2883 C   0  0  0  0  0  0  0  0  0  0  0  0
   -6.5664    1.3324   -0.0347 C   0  0  0  0  0  0  0  0  0  0  0  0
   -7.2714    0.2136   -0.3606 C   0  0  0  0  0  0  0  0  0  0  0  0
   -8.6135    0.1579   -0.0977 F   0  0  0  0  0  0  0  0  0  0  0  0
   -6.6026   -0.8254   -0.9446 C   0  0  0  0  0  0  0  0  0  0  0  0
   -5.2282   -0.7754   -1.2152 C   0  0  0  0  0  0  0  0  0  0  0  0
   -4.6760   -1.8676   -1.8285 F   0  0  0  0  0  0  0  0  0  0  0  0
   -1.3565   -1.0014   -0.9033 C   0  0  0  0  0  0  0  0  0  0  0  0
   -1.9277   -1.9251   -1.5177 O   0  0  0  0  0  0  0  0  0  0  0  0
   -0.0900   -1.2954   -0.4750 N   0  0  0  0  0  0  0  0  0  0  0  0
    0.4805   -2.6024   -0.7462 C   0  0  0  0  0  0  0  0  0  0  0  0
    0.6111   -0.3694    0.1923 C   0  0  0  0  0  0  0  0  0  0  0  0
    1.8755   -0.6640    0.6195 N   0  0  0  0  0  0  0  0  0  0  0  0
  1  2  1  0
  2  3  2  0
  2  4  1  0
  4  5  1  0
  5  6  1  1
  5  7  1  0
  7  8  2  0
  7  9  1  0
  9 10  1  0
 10 11  1  0
 11 12  1  0
 12 13  1  0
 12 14  2  0
 16 15  1  6
 16 17  1  0
 17 18  1  0
 18 19  1  0
 19 20  2  0
 20 21  1  0
 21 22  2  0
 16 23  1  0
 23 24  1  0
 24 25  2  0
 25 26  1  0
 26 27  2  0
 27 28  1  0
 28 29  2  0
 29 30  1  0
 30 31  1  0
 31 32  2  0
 32 33  1  0
 33 34  2  0
 34 35  1  0
 34 36  1  0
 36 37  2  0
 37 38  1  0
 29 39  1  0
 39 40  2  0
 39 41  1  0
 41 42  1  0
 41 43  1  0
 43 44  2  0
 22 18  1  0
 44 24  1  0
 43 27  1  0
 37 31  1  0
M  RAD  1  13   2
M  END

