
     RDKit          3D

 55 57  0  0  0  0  0  0  0  0999 V2000
   -5.3748   -3.8293    0.2410 C   0  0  0  0  0  0  0  0  0  0  0  0
   -4.1385   -3.2204   -0.3709 C   0  0  0  0  0  0  0  0  0  0  0  0
   -3.0591   -4.2464   -0.5791 C   0  0  0  0  0  0  0  0  0  0  0  0
   -4.4777   -2.5919   -1.7229 C   0  0  0  0  0  0  0  0  0  0  0  0
   -3.1507   -2.0167   -2.2403 C   0  0  0  0  0  0  0  0  0  0  0  0
   -2.7342   -1.0449   -1.2295 N   0  0  0  0  0  0  0  0  0  0  0  0
   -1.5506   -0.2901   -1.3267 C   0  0  0  0  0  0  0  0  0  0  0  0
   -0.8176   -0.4146   -2.2661 O   0  0  0  0  0  0  0  0  0  0  0  0
   -1.2919    0.7043   -0.1110 C   0  0  2  0  0  0  0  0  0  0  0  0
   -2.1557    1.9472   -0.7955 C   0  0  0  0  0  0  0  0  0  0  0  0
   -2.0630    3.0573    0.1950 C   0  0  0  0  0  0  0  0  0  0  0  0
   -2.6248    2.7349    1.5214 C   0  0  0  0  0  0  0  0  0  0  0  0
   -3.1879    1.4881    1.7524 O   0  0  0  0  0  1  0  0  0  0  0  0
   -2.5608    3.6319    2.3936 O   0  0  0  0  0  0  0  0  0  0  0  0
    0.0872    1.2978   -0.5985 N   0  0  0  0  0  0  0  0  0  0  0  0
    1.0768    0.2500   -0.6289 C   0  0  0  0  0  0  0  0  0  0  0  0
    0.8580   -0.9274   -0.3169 O   0  0  0  0  0  0  0  0  0  0  0  0
    2.4526    0.6144   -1.0672 C   0  0  0  0  0  0  0  0  0  0  0  0
    3.3493   -0.5698   -1.0815 C   0  0  0  0  0  0  0  0  0  0  0  0
    3.4924   -1.2176    0.2515 C   0  0  0  0  0  0  0  0  0  0  0  0
    4.0523   -0.2283    1.2243 C   0  0  0  0  0  0  0  0  0  0  0  0
    5.3672    0.2737    0.8072 N   0  0  0  0  0  0  0  0  0  0  0  0
    5.9279    1.2281    1.7285 C   0  0  0  0  0  0  0  0  0  0  0  0
    7.1967    1.7892    1.4355 N   0  0  0  0  0  0  0  0  0  0  0  0
    5.3269    1.5804    2.7844 N   0  0  0  0  0  4  0  0  0  0  0  0
    5.4322    1.1010   -3.3946 C   0  0  0  0  0  0  0  0  0  0  0  0
    4.5767    1.0750   -1.9290 C   0  0  2  0  0  0  0  0  0  0  0  0
    5.3832   -0.3007   -1.4854 C   0  0  0  0  0  0  0  0  0  0  0  0
    4.8469   -0.5967   -0.1873 N   0  0  0  0  0  0  0  0  0  0  0  0
    3.8294   -1.3536    0.1853 N   0  0  0  0  0  0  0  0  0  0  0  0
    3.7475   -1.2924    1.5213 C   0  0  0  0  0  0  0  0  0  0  0  0
    4.7214   -0.4916    1.9802 N   0  0  0  0  0  0  0  0  0  0  0  0
    5.3829   -0.0757    0.9235 N   0  0  0  0  0  0  0  0  0  0  0  0
    3.3826    0.2945   -2.6014 N   0  0  0  0  0  0  0  0  0  0  0  0
    2.1566    0.3197   -1.8807 C   0  0  0  0  0  0  0  0  0  0  0  0
    1.9971    0.9640   -0.7340 N   0  0  0  0  0  0  0  0  0  0  0  0
    0.8522    1.0065   -0.0294 C   0  0  0  0  0  0  0  0  0  0  0  0
   -0.2447    0.3337   -0.5262 C   0  0  0  0  0  0  0  0  0  0  0  0
   -1.4621    0.3102    0.1102 C   0  0  0  0  0  0  0  0  0  0  0  0
   -2.4882   -0.3934   -0.4765 C   0  0  0  0  0  0  0  0  0  0  0  0
   -3.7560   -0.4694    0.1017 O   0  0  0  0  0  0  0  0  0  0  0  0
   -3.9830    0.1850    1.3024 C   0  0  0  0  0  0  0  0  0  0  0  0
   -4.9461    1.1796    1.4210 C   0  0  0  0  0  0  0  0  0  0  0  0
   -5.1091    1.7773    2.6402 C   0  0  0  0  0  0  0  0  0  0  0  0
   -4.3475    1.4145    3.7302 C   0  0  0  0  0  0  0  0  0  0  0  0
   -4.5868    2.0697    4.8993 F   0  0  0  0  0  0  0  0  0  0  0  0
   -3.4021    0.4312    3.5950 C   0  0  0  0  0  0  0  0  0  0  0  0
   -3.2130   -0.1898    2.3825 C   0  0  0  0  0  0  0  0  0  0  0  0
   -2.2746   -1.1598    2.2647 F   0  0  0  0  0  0  0  0  0  0  0  0
   -2.2754   -1.0497   -1.6725 C   0  0  0  0  0  0  0  0  0  0  0  0
   -3.2243   -1.6828   -2.1861 O   0  0  0  0  0  0  0  0  0  0  0  0
   -1.0875   -1.0323   -2.3026 N   0  0  0  0  0  0  0  0  0  0  0  0
   -0.9064   -1.7375   -3.5613 C   0  0  0  0  0  0  0  0  0  0  0  0
   -0.0909   -0.3393   -1.7169 C   0  0  0  0  0  0  0  0  0  0  0  0
    1.0890   -0.3408   -2.3736 N   0  0  0  0  0  0  0  0  0  0  0  0
  1  2  1  0
  2  3  1  0
  2  4  1  0
  4  5  1  0
  5  6  1  0
  6  7  1  0
  7  8  2  0
  7  9  1  0
  9 10  1  6
 10 11  1  0
 11 12  1  0
 12 13  1  0
 12 14  2  0
  9 15  1  0
 15 16  1  0
 16 17  2  0
 16 18  1  0
 18 19  1  0
 19 20  1  0
 20 21  1  0
 21 22  1  0
 22 23  1  0
 23 24  1  0
 23 25  2  0
 27 26  1  6
 27 28  1  0
 28 29  1  0
 29 30  1  0
 30 31  2  0
 31 32  1  0
 32 33  2  0
 27 34  1  0
 34 35  1  0
 35 36  2  0
 36 37  1  0
 37 38  2  0
 38 39  1  0
 39 40  2  0
 40 41  1  0
 41 42  1  0
 42 43  2  0
 43 44  1  0
 44 45  2  0
 45 46  1  0
 45 47  1  0
 47 48  2  0
 48 49  1  0
 40 50  1  0
 50 51  2  0
 50 52  1  0
 52 53  1  0
 52 54  1  0
 54 55  2  0
 33 29  1  0
 55 35  1  0
 54 38  1  0
 48 42  1  0
M  CHG  1  25   1
M  RAD  1  13   2
M  END

