
     RDKit          3D

 54 56  0  0  0  0  0  0  0  0999 V2000
   -4.0410    5.1191   -1.6837 C   0  0  0  0  0  0  0  0  0  0  0  0
   -4.4474    3.6892   -1.3939 C   0  0  0  0  0  0  0  0  0  0  0  0
   -3.3147    3.1858   -0.3140 C   0  0  2  0  0  0  0  0  0  0  0  0
   -2.0739    3.4530   -1.3859 C   0  0  0  0  0  0  0  0  0  0  0  0
   -3.4592    1.6099   -0.7512 C   0  0  0  0  0  0  0  0  0  0  0  0
   -2.4887    0.8945    0.1204 C   0  0  0  0  0  0  0  0  0  0  0  0
   -1.7712    1.4761    0.9627 O   0  0  0  0  0  0  0  0  0  0  0  0
   -2.3829   -0.5043   -0.0192 N   0  0  0  0  0  0  0  0  0  0  0  0
   -1.3218   -1.1365    0.9576 C   0  0  1  0  0  0  0  0  0  0  0  0
   -1.7968   -2.6983    0.6678 C   0  0  0  0  0  0  0  0  0  0  0  0
   -3.2034   -2.6778    1.1116 C   0  0  0  0  0  0  0  0  0  0  0  0
   -4.1554   -1.7723    0.4558 C   0  0  0  0  0  0  0  0  0  0  0  0
   -3.7360   -3.8856    1.7737 C   0  0  0  0  0  0  0  0  0  0  0  0
   -0.1020   -1.1742   -0.1049 C   0  0  0  0  0  0  0  0  0  0  0  0
   -0.2409   -0.7793   -1.2346 O   0  0  0  0  0  0  0  0  0  0  0  0
    1.1093   -1.7109    0.4390 N   0  0  0  0  0  0  0  0  0  0  0  0
    2.2353   -1.7597   -0.5004 C   0  0  0  0  0  0  0  0  0  0  0  0
    2.4991   -0.3641   -0.9437 C   0  0  0  0  0  0  0  0  0  0  0  0
    2.8397    0.4814    0.2459 C   0  0  0  0  0  0  0  0  0  0  0  0
    4.0561    0.0054    0.9901 C   0  0  0  0  0  0  0  0  0  0  0  0
    5.1721    0.0314    0.0422 N   0  0  0  0  0  0  0  0  0  0  0  0
    6.4529   -0.3696    0.5053 C   0  0  0  0  0  0  0  0  0  0  0  0
    7.6010   -0.3810   -0.3589 N   0  0  0  0  0  0  0  0  0  0  0  0
    6.5698   -0.7321    1.7263 N   0  0  0  0  0  4  0  0  0  0  0  0
    3.7718    1.6177    0.7767 C   0  0  0  0  0  0  0  0  0  0  0  0
    4.2930    0.0241    0.6795 C   0  0  2  0  0  0  0  0  0  0  0  0
    5.8273    0.4918    0.2646 C   0  0  0  0  0  0  0  0  0  0  0  0
    6.5877   -0.6967    0.0945 N   0  0  0  0  0  0  0  0  0  0  0  0
    6.6513   -1.2782   -1.0915 N   0  0  0  0  0  0  0  0  0  0  0  0
    7.4179   -2.3676   -0.9985 C   0  0  0  0  0  0  0  0  0  0  0  0
    7.8220   -2.4394    0.2716 N   0  0  0  0  0  0  0  0  0  0  0  0
    7.3025   -1.4130    0.9089 N   0  0  0  0  0  0  0  0  0  0  0  0
    3.7726   -0.1041   -0.8118 N   0  0  0  0  0  0  0  0  0  0  0  0
    2.4000    0.1053   -0.9875 C   0  0  0  0  0  0  0  0  0  0  0  0
    1.8876    0.0128   -2.2246 N   0  0  0  0  0  0  0  0  0  0  0  0
    0.5637    0.2112   -2.4186 C   0  0  0  0  0  0  0  0  0  0  0  0
   -0.2913    0.5107   -1.3683 C   0  0  0  0  0  0  0  0  0  0  0  0
   -1.6447    0.7160   -1.5499 C   0  0  0  0  0  0  0  0  0  0  0  0
   -2.4244    1.0103   -0.4464 C   0  0  0  0  0  0  0  0  0  0  0  0
   -3.7897    1.2233   -0.5892 O   0  0  0  0  0  0  0  0  0  0  0  0
   -4.6752    0.4063    0.0804 C   0  0  0  0  0  0  0  0  0  0  0  0
   -4.2522   -0.6225    0.8930 C   0  0  0  0  0  0  0  0  0  0  0  0
   -5.1260   -1.4416    1.5641 C   0  0  0  0  0  0  0  0  0  0  0  0
   -6.4789   -1.2160    1.4110 C   0  0  0  0  0  0  0  0  0  0  0  0
   -7.3316   -2.0329    2.0799 F   0  0  0  0  0  0  0  0  0  0  0  0
   -6.9343   -0.2025    0.6111 C   0  0  0  0  0  0  0  0  0  0  0  0
   -6.0437    0.6050   -0.0510 C   0  0  0  0  0  0  0  0  0  0  0  0
   -6.4761    1.6001   -0.8365 F   0  0  0  0  0  0  0  0  0  0  0  0
   -1.8045    1.0834    0.7837 C   0  0  0  0  0  0  0  0  0  0  0  0
   -2.5264    1.3510    1.7717 O   0  0  0  0  0  0  0  0  0  0  0  0
   -0.4861    0.8835    0.9612 N   0  0  0  0  0  0  0  0  0  0  0  0
    0.1058    0.9754    2.2875 C   0  0  0  0  0  0  0  0  0  0  0  0
    0.2792    0.5965   -0.1093 C   0  0  0  0  0  0  0  0  0  0  0  0
    1.6023    0.3903    0.0309 N   0  0  0  0  0  0  0  0  0  0  0  0
  1  2  1  0
  2  3  1  0
  3  4  1  6
  3  5  1  0
  5  6  1  0
  6  7  2  0
  6  8  1  0
  8  9  1  0
  9 10  1  6
 10 11  1  0
 11 12  1  0
 11 13  1  0
  9 14  1  0
 14 15  2  0
 14 16  1  0
 16 17  1  0
 17 18  1  0
 18 19  1  0
 19 20  1  0
 20 21  1  0
 21 22  1  0
 22 23  1  0
 22 24  2  0
 26 25  1  1
 26 27  1  0
 27 28  1  0
 28 29  1  0
 29 30  2  0
 30 31  1  0
 31 32  2  0
 26 33  1  0
 33 34  1  0
 34 35  2  0
 35 36  1  0
 36 37  2  0
 37 38  1  0
 38 39  2  0
 39 40  1  0
 40 41  1  0
 41 42  2  0
 42 43  1  0
 43 44  2  0
 44 45  1  0
 44 46  1  0
 46 47  2  0
 47 48  1  0
 39 49  1  0
 49 50  2  0
 49 51  1  0
 51 52  1  0
 51 53  1  0
 53 54  2  0
 32 28  1  0
 54 34  1  0
 53 37  1  0
 47 41  1  0
M  CHG  1  24   1
M  END

