
     RDKit          3D

 53 56  0  0  0  0  0  0  0  0999 V2000
   -6.0962   -0.1561   -1.0183 C   0  0  0  0  0  0  0  0  0  0  0  0
   -4.8751   -1.0448   -0.8935 C   0  0  0  0  0  0  0  0  0  0  0  0
   -4.0371   -0.2803    0.3058 C   0  0  2  0  0  0  0  0  0  0  0  0
   -3.9085    1.0982   -0.5416 C   0  0  0  0  0  0  0  0  0  0  0  0
   -2.6093   -0.8704   -0.1892 C   0  0  0  0  0  0  0  0  0  0  0  0
   -1.7120   -0.2832    0.7924 N   0  0  0  0  0  0  0  0  0  0  0  0
   -0.3371   -0.6204    0.7017 C   0  0  0  0  0  0  0  0  0  0  0  0
    0.0572   -1.3712   -0.1683 O   0  0  0  0  0  0  0  0  0  0  0  0
    0.6196    0.0240    1.7837 C   0  0  2  0  0  0  0  0  0  0  0  0
    1.4637    0.9647    0.7731 C   0  0  0  0  0  0  0  0  0  0  0  0
    0.4809    1.8704    0.1538 C   0  0  0  0  0  0  0  0  0  0  0  0
    0.2118    3.0418    0.8187 C   0  0  0  0  0  0  0  0  0  0  0  0
   -0.6914    3.9194    0.2707 C   0  0  0  0  0  0  0  0  0  0  0  0
   -1.3022    3.6182   -0.9150 C   0  0  0  0  0  0  0  0  0  0  0  0
   -1.0274    2.4552   -1.5644 C   0  0  0  0  0  0  0  0  0  0  0  0
   -0.1236    1.5696   -1.0237 C   0  0  0  0  0  0  0  0  0  0  0  0
    1.5962   -1.1325    1.9226 N   0  0  0  0  0  0  0  0  0  0  0  0
    2.5347   -1.3969    0.9266 C   0  0  0  0  0  0  0  0  0  0  0  0
    2.5332   -0.6399   -0.0667 O   0  0  0  0  0  0  0  0  0  0  0  0
    3.5183   -2.5107    0.9831 C   0  0  0  0  0  0  0  0  0  0  0  0
    4.3362   -2.5199   -0.2228 C   0  0  0  0  0  0  0  0  0  0  0  0
    3.6543   -2.6874   -1.5184 C   0  0  0  0  0  0  0  0  0  0  0  0
    5.7139   -3.0478   -0.1145 C   0  0  0  0  0  0  0  0  0  0  0  0
    3.3845   -0.5971   -2.9069 C   0  0  0  0  0  0  0  0  0  0  0  0
    4.1621    0.4421   -1.8670 C   0  0  2  0  0  0  0  0  0  0  0  0
    5.4851   -0.5730   -1.7675 C   0  0  0  0  0  0  0  0  0  0  0  0
    6.4047    0.0681   -0.8904 N   0  0  0  0  0  0  0  0  0  0  0  0
    7.3903    0.9253   -1.0844 N   0  0  0  0  0  0  0  0  0  0  0  0
    7.9839    1.2497    0.0782 C   0  0  0  0  0  0  0  0  0  0  0  0
    7.3262    0.5565    1.0164 N   0  0  0  0  0  0  0  0  0  0  0  0
    6.4021   -0.1302    0.4173 N   0  0  0  0  0  0  0  0  0  0  0  0
    3.5133   -0.1179   -0.5489 N   0  0  0  0  0  0  0  0  0  0  0  0
    2.1452   -0.0909   -0.3760 C   0  0  0  0  0  0  0  0  0  0  0  0
    1.7090   -0.5965    0.7889 N   0  0  0  0  0  0  0  0  0  0  0  0
    0.3806   -0.6262    1.0773 C   0  0  0  0  0  0  0  0  0  0  0  0
   -0.5582   -0.1441    0.1958 C   0  0  0  0  0  0  0  0  0  0  0  0
   -1.9227   -0.1451    0.4286 C   0  0  0  0  0  0  0  0  0  0  0  0
   -2.8030    0.3537   -0.4989 C   0  0  0  0  0  0  0  0  0  0  0  0
   -4.1594    0.3580   -0.2790 O   0  0  0  0  0  0  0  0  0  0  0  0
   -4.6639   -0.1539    0.9109 C   0  0  0  0  0  0  0  0  0  0  0  0
   -5.3993    0.6340    1.7729 C   0  0  0  0  0  0  0  0  0  0  0  0
   -5.9055    0.1383    2.9566 C   0  0  0  0  0  0  0  0  0  0  0  0
   -5.7006   -1.1710    3.3360 C   0  0  0  0  0  0  0  0  0  0  0  0
   -6.2026   -1.6551    4.5056 F   0  0  0  0  0  0  0  0  0  0  0  0
   -4.9669   -1.9678    2.4820 C   0  0  0  0  0  0  0  0  0  0  0  0
   -4.4613   -1.4643    1.2951 C   0  0  0  0  0  0  0  0  0  0  0  0
   -3.7344   -2.2392    0.4407 F   0  0  0  0  0  0  0  0  0  0  0  0
   -2.3135    0.8612   -1.6768 C   0  0  0  0  0  0  0  0  0  0  0  0
   -3.1354    1.3138   -2.5145 O   0  0  0  0  0  0  0  0  0  0  0  0
   -0.9693    0.8625   -1.9069 N   0  0  0  0  0  0  0  0  0  0  0  0
   -0.5135    1.4101   -3.1656 C   0  0  0  0  0  0  0  0  0  0  0  0
   -0.1045    0.3743   -0.9995 C   0  0  0  0  0  0  0  0  0  0  0  0
    1.2268    0.3722   -1.2200 N   0  0  0  0  0  0  0  0  0  0  0  0
  1  2  1  0
  2  3  1  0
  3  4  1  6
  3  5  1  0
  5  6  1  0
  6  7  1  0
  7  8  2  0
  7  9  1  0
  9 10  1  6
 10 11  1  0
 11 12  2  0
 12 13  1  0
 13 14  2  0
 14 15  1  0
 15 16  2  0
  9 17  1  0
 17 18  1  0
 18 19  2  0
 18 20  1  0
 20 21  1  0
 21 22  1  0
 21 23  1  0
 25 24  1  6
 25 26  1  0
 26 27  1  0
 27 28  1  0
 28 29  2  0
 29 30  1  0
 30 31  2  0
 25 32  1  0
 32 33  1  0
 33 34  2  0
 34 35  1  0
 35 36  2  0
 36 37  1  0
 37 38  2  0
 38 39  1  0
 39 40  1  0
 40 41  2  0
 41 42  1  0
 42 43  2  0
 43 44  1  0
 43 45  1  0
 45 46  2  0
 46 47  1  0
 38 48  1  0
 48 49  2  0
 48 50  1  0
 50 51  1  0
 50 52  1  0
 52 53  2  0
 16 11  1  0
 31 27  1  0
 53 33  1  0
 52 36  1  0
 46 40  1  0
M  END

