
     RDKit          3D

 54 56  0  0  0  0  0  0  0  0999 V2000
   -6.6737    2.3278   -0.0080 C   0  0  0  0  0  0  0  0  0  0  0  0
   -5.1759    2.1382    0.0374 C   0  0  0  0  0  0  0  0  0  0  0  0
   -4.5647    3.4975    0.2445 C   0  0  0  0  0  0  0  0  0  0  0  0
   -4.8907    1.2368    1.2383 C   0  0  0  0  0  0  0  0  0  0  0  0
   -3.3687    1.0240    1.3130 C   0  0  0  0  0  0  0  0  0  0  0  0
   -2.9108    0.3799    0.0685 N   0  0  0  0  0  0  0  0  0  0  0  0
   -1.5709    0.0579   -0.1748 C   0  0  0  0  0  0  0  0  0  0  0  0
   -0.7109    0.2918    0.6231 O   0  0  0  0  0  0  0  0  0  0  0  0
   -1.3174   -0.6299   -1.5884 C   0  0  2  0  0  0  0  0  0  0  0  0
   -0.8125   -2.1070   -1.0928 C   0  0  0  0  0  0  0  0  0  0  0  0
   -1.9087   -2.6994   -0.3099 C   0  0  0  0  0  0  0  0  0  0  0  0
   -1.6058   -3.9650    0.2206 O   0  0  0  0  0  1  0  0  0  0  0  0
   -3.0220   -2.2164   -0.0847 O   0  0  0  0  0  0  0  0  0  0  0  0
    0.1062   -0.0129   -1.8172 N   0  0  0  0  0  0  0  0  0  0  0  0
    1.2641   -0.6642   -1.5186 C   0  0  0  0  0  0  0  0  0  0  0  0
    1.2552   -1.8050   -1.0419 O   0  0  0  0  0  0  0  0  0  0  0  0
    2.5730    0.0216   -1.7712 C   0  0  0  0  0  0  0  0  0  0  0  0
    3.6648   -0.9084   -1.2886 C   0  0  0  0  0  0  0  0  0  0  0  0
    3.6354   -1.2693    0.1209 C   0  0  0  0  0  0  0  0  0  0  0  0
    3.7783   -0.2734    1.1654 C   0  0  0  0  0  0  0  0  0  0  0  0
    4.9360    0.4844    1.3275 N   0  0  0  0  0  0  0  0  0  0  0  0
    5.5263    1.3754    0.4553 C   0  0  0  0  0  0  0  0  0  0  0  0
    6.7352    2.0657    0.8175 N   0  0  0  0  0  0  0  0  0  0  0  0
    5.0585    1.6501   -0.7158 N   0  0  0  0  0  4  0  0  0  0  0  0
    4.3325   -1.9797    1.2435 C   0  0  0  0  0  0  0  0  0  0  0  0
    5.0266   -1.7069   -0.2361 C   0  0  2  0  0  0  0  0  0  0  0  0
    6.2715   -0.8264    0.3954 C   0  0  0  0  0  0  0  0  0  0  0  0
    5.7448    0.2903    1.0722 N   0  0  0  0  0  0  0  0  0  0  0  0
    5.3586    0.4917    2.3209 N   0  0  0  0  0  0  0  0  0  0  0  0
    4.9215    1.7386    2.4930 C   0  0  0  0  0  0  0  0  0  0  0  0
    5.0389    2.3418    1.3042 N   0  0  0  0  0  0  0  0  0  0  0  0
    5.5281    1.4718    0.4715 N   0  0  0  0  0  0  0  0  0  0  0  0
    4.1046   -0.4615   -0.5482 N   0  0  0  0  0  0  0  0  0  0  0  0
    2.7011   -0.7925   -0.5640 C   0  0  0  0  0  0  0  0  0  0  0  0
    2.2567   -2.0405   -0.3332 N   0  0  0  0  0  0  0  0  0  0  0  0
    0.9578   -2.3849   -0.3400 C   0  0  0  0  0  0  0  0  0  0  0  0
    0.0295   -1.3945   -0.5999 C   0  0  0  0  0  0  0  0  0  0  0  0
   -1.3251   -1.6427   -0.6298 C   0  0  0  0  0  0  0  0  0  0  0  0
   -2.2174   -0.6297   -0.8922 C   0  0  0  0  0  0  0  0  0  0  0  0
   -3.5757   -0.8657   -0.9249 O   0  0  0  0  0  0  0  0  0  0  0  0
   -4.4640   -0.2417   -0.0926 C   0  0  0  0  0  0  0  0  0  0  0  0
   -5.4604    0.5217   -0.6473 C   0  0  0  0  0  0  0  0  0  0  0  0
   -6.3834    1.1745    0.1155 C   0  0  0  0  0  0  0  0  0  0  0  0
   -6.2920    1.0483    1.4872 C   0  0  0  0  0  0  0  0  0  0  0  0
   -7.1990    1.6887    2.2619 F   0  0  0  0  0  0  0  0  0  0  0  0
   -5.3011    0.2883    2.0581 C   0  0  0  0  0  0  0  0  0  0  0  0
   -4.3828   -0.3603    1.2795 C   0  0  0  0  0  0  0  0  0  0  0  0
   -3.4148   -1.1025    1.8322 F   0  0  0  0  0  0  0  0  0  0  0  0
   -1.7402    0.6307   -1.1236 C   0  0  0  0  0  0  0  0  0  0  0  0
   -2.5054    1.6009   -1.3696 O   0  0  0  0  0  0  0  0  0  0  0  0
   -0.4186    0.8746   -1.0948 N   0  0  0  0  0  0  0  0  0  0  0  0
    0.1272    2.2105   -1.3376 C   0  0  0  0  0  0  0  0  0  0  0  0
    0.4839   -0.1131   -0.8370 C   0  0  0  0  0  0  0  0  0  0  0  0
    1.7965    0.1701   -0.8168 N   0  0  0  0  0  0  0  0  0  0  0  0
  1  2  1  0
  2  3  1  0
  2  4  1  0
  4  5  1  0
  5  6  1  0
  6  7  1  0
  7  8  2  0
  7  9  1  0
  9 10  1  1
 10 11  1  0
 11 12  1  0
 11 13  2  0
  9 14  1  0
 14 15  1  0
 15 16  2  0
 15 17  1  0
 17 18  1  0
 18 19  1  0
 19 20  1  0
 20 21  1  0
 21 22  1  0
 22 23  1  0
 22 24  2  0
 26 25  1  1
 26 27  1  0
 27 28  1  0
 28 29  1  0
 29 30  2  0
 30 31  1  0
 31 32  2  0
 26 33  1  0
 33 34  1  0
 34 35  2  0
 35 36  1  0
 36 37  2  0
 37 38  1  0
 38 39  2  0
 39 40  1  0
 40 41  1  0
 41 42  2  0
 42 43  1  0
 43 44  2  0
 44 45  1  0
 44 46  1  0
 46 47  2  0
 47 48  1  0
 39 49  1  0
 49 50  2  0
 49 51  1  0
 51 52  1  0
 51 53  1  0
 53 54  2  0
 32 28  1  0
 54 34  1  0
 53 37  1  0
 47 41  1  0
M  CHG  1  24   1
M  RAD  1  12   2
M  END

