
     RDKit          3D

 53 56  0  0  0  0  0  0  0  0999 V2000
    3.6705    0.4708   -0.2485 C   0  0  0  0  0  0  0  0  0  0  0  0
    4.3842   -1.0230   -0.0400 C   0  0  2  0  0  0  0  0  0  0  0  0
    5.7533   -0.5650   -0.8982 C   0  0  0  0  0  0  0  0  0  0  0  0
    6.2698    0.5442   -0.1574 N   0  0  0  0  0  0  0  0  0  0  0  0
    5.9485    1.7961   -0.3565 N   0  0  0  0  0  0  0  0  0  0  0  0
    6.6152    2.5532    0.5088 C   0  0  0  0  0  0  0  0  0  0  0  0
    7.3622    1.7226    1.2520 N   0  0  0  0  0  0  0  0  0  0  0  0
    7.1318    0.4950    0.8229 N   0  0  0  0  0  0  0  0  0  0  0  0
    3.7198   -1.6692   -1.3230 N   0  0  0  0  0  0  0  0  0  0  0  0
    2.2920   -1.6854   -1.3144 C   0  0  0  0  0  0  0  0  0  0  0  0
    1.5723   -2.1962   -2.3231 N   0  0  0  0  0  0  0  0  0  0  0  0
    0.2192   -2.1992   -2.2901 C   0  0  0  0  0  0  0  0  0  0  0  0
   -0.4910   -1.6824   -1.2283 C   0  0  0  0  0  0  0  0  0  0  0  0
   -1.8654   -1.6617   -1.1470 C   0  0  0  0  0  0  0  0  0  0  0  0
   -2.5092   -1.1261   -0.0490 C   0  0  0  0  0  0  0  0  0  0  0  0
   -3.8840   -1.0958    0.0522 O   0  0  0  0  0  0  0  0  0  0  0  0
   -4.4941    0.1450    0.1625 C   0  0  0  0  0  0  0  0  0  0  0  0
   -3.8158    1.3482    0.1721 C   0  0  0  0  0  0  0  0  0  0  0  0
   -4.4449    2.5709    0.2829 C   0  0  0  0  0  0  0  0  0  0  0  0
   -5.8161    2.6120    0.3901 C   0  0  0  0  0  0  0  0  0  0  0  0
   -6.4556    3.8134    0.5007 F   0  0  0  0  0  0  0  0  0  0  0  0
   -6.4998    1.4222    0.3816 C   0  0  0  0  0  0  0  0  0  0  0  0
   -5.8828    0.1939    0.2715 C   0  0  0  0  0  0  0  0  0  0  0  0
   -6.5610   -0.9729    0.2637 F   0  0  0  0  0  0  0  0  0  0  0  0
   -1.7403   -0.6096    0.9701 C   0  0  0  0  0  0  0  0  0  0  0  0
   -2.3441   -0.1266    1.9622 O   0  0  0  0  0  0  0  0  0  0  0  0
   -0.3984   -0.6386    0.8728 N   0  0  0  0  0  0  0  0  0  0  0  0
    0.4106   -0.0950    1.9453 C   0  0  0  0  0  0  0  0  0  0  0  0
    0.2555   -1.1584   -0.1937 C   0  0  0  0  0  0  0  0  0  0  0  0
    1.5976   -1.1823   -0.2805 N   0  0  0  0  0  0  0  0  0  0  0  0
   -3.7665   -3.6988    1.6578 O   0  0  0  0  0  1  0  0  0  0  0  0
   -2.9859   -2.6162    1.7636 C   0  0  0  0  0  0  0  0  0  0  0  0
   -1.7562   -2.6986    1.5676 O   0  0  0  0  0  0  0  0  0  0  0  0
   -3.4867   -1.2525    2.1224 C   0  0  0  0  0  0  0  0  0  0  0  0
   -2.3382   -0.2299    2.1213 C   0  0  0  0  0  0  0  0  0  0  0  0
   -1.9579   -0.2826    0.4857 C   0  0  2  0  0  0  0  0  0  0  0  0
   -0.7134    0.7550    0.7790 N   0  0  0  0  0  0  0  0  0  0  0  0
    0.4538    0.1548    0.2423 C   0  0  0  0  0  0  0  0  0  0  0  0
    0.2049   -1.0086   -0.2827 O   0  0  0  0  0  0  0  0  0  0  0  0
    1.8465    0.6262    0.1752 C   0  0  0  0  0  0  0  0  0  0  0  0
    2.6835   -0.6528    0.0461 C   0  0  0  0  0  0  0  0  0  0  0  0
    4.0624   -0.2200   -0.1751 C   0  0  0  0  0  0  0  0  0  0  0  0
    4.9279    0.2787    0.8149 C   0  0  0  0  0  0  0  0  0  0  0  0
    6.2074    0.6178    0.4949 C   0  0  0  0  0  0  0  0  0  0  0  0
    6.7334    0.5122   -0.7557 C   0  0  0  0  0  0  0  0  0  0  0  0
    5.9225    0.0284   -1.7496 C   0  0  0  0  0  0  0  0  0  0  0  0
    4.6128   -0.3300   -1.4580 C   0  0  0  0  0  0  0  0  0  0  0  0
   -2.9020    0.9514    0.0735 C   0  0  0  0  0  0  0  0  0  0  0  0
   -3.8124    1.3612    0.6739 O   0  0  0  0  0  0  0  0  0  0  0  0
   -2.4422    1.4834   -1.1306 N   0  0  0  0  0  0  0  0  0  0  0  0
   -2.9539    2.6280   -1.8820 C   0  0  0  0  0  0  0  0  0  0  0  0
   -4.3239    2.3678   -2.3716 C   0  0  0  0  0  0  0  0  0  0  0  0
   -4.2159    1.2251   -3.2127 O   0  0  0  0  0  0  0  0  0  0  0  0
  2  1  1  6
  2  3  1  0
  3  4  1  0
  4  5  1  0
  5  6  2  0
  6  7  1  0
  7  8  2  0
  2  9  1  0
  9 10  1  0
 10 11  2  0
 11 12  1  0
 12 13  2  0
 13 14  1  0
 14 15  2  0
 15 16  1  0
 16 17  1  0
 17 18  2  0
 18 19  1  0
 19 20  2  0
 20 21  1  0
 20 22  1  0
 22 23  2  0
 23 24  1  0
 15 25  1  0
 25 26  2  0
 25 27  1  0
 27 28  1  0
 27 29  1  0
 29 30  2  0
 31 32  1  0
 32 33  2  0
 32 34  1  0
 34 35  1  0
 36 35  1  1
 36 37  1  0
 37 38  1  0
 38 39  2  0
 38 40  1  0
 40 41  1  0
 41 42  1  0
 42 43  2  0
 43 44  1  0
 44 45  2  0
 45 46  1  0
 46 47  2  0
 36 48  1  0
 48 49  2  0
 48 50  1  0
 50 51  1  0
 51 52  1  0
 52 53  1  0
  8  4  1  0
 30 10  1  0
 47 42  1  0
 29 13  1  0
 23 17  1  0
M  RAD  1  31   2
M  END

