
     RDKit          3D

 48 52  0  0  0  0  0  0  0  0999 V2000
   -4.9190   -0.5642    0.0292 C   0  0  0  0  0  0  0  0  0  0  0  0
   -3.9356   -1.3344    0.8859 C   0  0  0  0  0  0  0  0  0  0  0  0
   -4.1420   -1.1120    2.3521 C   0  0  0  0  0  0  0  0  0  0  0  0
   -2.5621   -1.0519    0.3987 C   0  0  0  0  0  0  0  0  0  0  0  0
   -2.1771    0.3705    0.4530 C   0  0  0  0  0  0  0  0  0  0  0  0
   -2.9703    1.2541    0.8832 O   0  0  0  0  0  0  0  0  0  0  0  0
   -0.9009    0.7978    0.0235 N   0  0  0  0  0  0  0  0  0  0  0  0
   -0.2773    2.0778   -0.0340 C   0  0  0  0  0  0  0  0  0  0  0  0
    0.5218    2.0440   -1.2823 C   0  0  0  0  0  0  0  0  0  0  0  0
    0.4904    0.6856   -1.8567 C   0  0  0  0  0  0  0  0  0  0  0  0
    0.1532   -0.2342   -0.5282 C   0  0  1  0  0  0  0  0  0  0  0  0
    1.4224    0.2107    0.2957 C   0  0  0  0  0  0  0  0  0  0  0  0
    1.4224    1.1128    1.1057 O   0  0  0  0  0  0  0  0  0  0  0  0
    2.5700   -0.5150    0.0280 N   0  0  0  0  0  0  0  0  0  0  0  0
    3.9337   -0.4181    0.5710 C   0  0  0  0  0  0  0  0  0  0  0  0
    4.7900   -0.5739   -0.6705 C   0  0  0  0  0  0  0  0  0  0  0  0
    3.8844   -1.1419   -1.7436 C   0  0  0  0  0  0  0  0  0  0  0  0
    2.6961   -1.6075   -0.9108 C   0  0  0  0  0  0  0  0  0  0  0  0
    5.6222   -0.5463   -1.3417 C   0  0  0  0  0  0  0  0  0  0  0  0
    4.3710    0.1465   -0.5168 C   0  0  2  0  0  0  0  0  0  0  0  0
    4.4716   -0.9660    0.7063 C   0  0  0  0  0  0  0  0  0  0  0  0
    5.8188   -0.7797    1.2080 N   0  0  0  0  0  0  0  0  0  0  0  0
    6.2697    0.0180    2.1563 N   0  0  0  0  0  0  0  0  0  0  0  0
    7.5893   -0.1936    2.2296 C   0  0  0  0  0  0  0  0  0  0  0  0
    7.9340   -1.1135    1.3312 N   0  0  0  0  0  0  0  0  0  0  0  0
    6.8366   -1.4593    0.7166 N   0  0  0  0  0  0  0  0  0  0  0  0
    3.2856   -0.6396   -1.3456 N   0  0  0  0  0  0  0  0  0  0  0  0
    1.9513   -0.4201   -1.0441 C   0  0  0  0  0  0  0  0  0  0  0  0
    1.0534   -1.0991   -1.7619 N   0  0  0  0  0  0  0  0  0  0  0  0
   -0.2607   -0.9958   -1.5906 C   0  0  0  0  0  0  0  0  0  0  0  0
   -0.6955   -0.1186   -0.5951 C   0  0  0  0  0  0  0  0  0  0  0  0
   -2.0503    0.0473   -0.3523 C   0  0  0  0  0  0  0  0  0  0  0  0
   -2.4262    0.9232    0.6391 C   0  0  0  0  0  0  0  0  0  0  0  0
   -3.7768    1.0821    0.8739 O   0  0  0  0  0  0  0  0  0  0  0  0
   -4.6958    0.3834    0.1351 C   0  0  0  0  0  0  0  0  0  0  0  0
   -5.6043   -0.5008    0.7100 C   0  0  0  0  0  0  0  0  0  0  0  0
   -6.5109   -1.1841   -0.0590 C   0  0  0  0  0  0  0  0  0  0  0  0
   -6.5773   -1.0397   -1.4281 C   0  0  0  0  0  0  0  0  0  0  0  0
   -7.4771   -1.7184   -2.1885 F   0  0  0  0  0  0  0  0  0  0  0  0
   -5.6794   -0.1648   -2.0031 C   0  0  0  0  0  0  0  0  0  0  0  0
   -4.7653    0.5259   -1.2396 C   0  0  0  0  0  0  0  0  0  0  0  0
   -3.8853    1.3900   -1.8480 F   0  0  0  0  0  0  0  0  0  0  0  0
   -1.4633    1.6073    1.3598 C   0  0  0  0  0  0  0  0  0  0  0  0
   -1.8626    2.3917    2.2503 O   0  0  0  0  0  0  0  0  0  0  0  0
   -0.1568    1.4265    1.1025 N   0  0  0  0  0  0  0  0  0  0  0  0
    0.8468    2.1387    1.8526 C   0  0  0  0  0  0  0  0  0  0  0  0
    0.2545    0.5661    0.1268 C   0  0  0  0  0  0  0  0  0  0  0  0
    1.5828    0.4281   -0.0838 N   0  0  0  0  0  0  0  0  0  0  0  0
  1  2  1  0
  2  3  1  0
  2  4  1  0
  4  5  1  0
  5  6  2  0
  5  7  1  0
  7  8  1  0
  8  9  1  0
  9 10  1  0
 10 11  1  0
 11 12  1  1
 12 13  2  0
 12 14  1  0
 14 15  1  0
 15 16  1  0
 16 17  1  0
 17 18  1  0
 20 19  1  6
 20 21  1  0
 21 22  1  0
 22 23  1  0
 23 24  2  0
 24 25  1  0
 25 26  2  0
 20 27  1  0
 27 28  1  0
 28 29  2  0
 29 30  1  0
 30 31  2  0
 31 32  1  0
 32 33  2  0
 33 34  1  0
 34 35  1  0
 35 36  2  0
 36 37  1  0
 37 38  2  0
 38 39  1  0
 38 40  1  0
 40 41  2  0
 41 42  1  0
 33 43  1  0
 43 44  2  0
 43 45  1  0
 45 46  1  0
 45 47  1  0
 47 48  2  0
 11  7  1  0
 18 14  1  0
 26 22  1  0
 48 28  1  0
 47 31  1  0
 41 35  1  0
M  END

