
     RDKit          3D

 50 52  0  0  0  0  0  0  0  0999 V2000
    5.3055    2.5811    0.9368 C   0  0  0  0  0  0  0  0  0  0  0  0
    4.4822    1.4222    0.4273 C   0  0  0  0  0  0  0  0  0  0  0  0
    5.2651    0.4899   -0.4620 C   0  0  0  0  0  0  0  0  0  0  0  0
    3.8557    0.6650    1.5687 C   0  0  0  0  0  0  0  0  0  0  0  0
    3.0323   -0.4894    1.0669 C   0  0  0  0  0  0  0  0  0  0  0  0
    1.9232   -0.0298    0.1707 C   0  0  0  0  0  0  0  0  0  0  0  0
    1.7761    1.1834   -0.0913 O   0  0  0  0  0  0  0  0  0  0  0  0
    1.0813   -0.9849   -0.3473 N   0  0  0  0  0  0  0  0  0  0  0  0
   -0.0918   -0.5929   -1.2850 C   0  0  2  0  0  0  0  0  0  0  0  0
   -0.9299    0.2622   -0.2964 C   0  0  0  0  0  0  0  0  0  0  0  0
   -0.5145    0.3568    0.8430 O   0  0  0  0  0  0  0  0  0  0  0  0
   -2.1103    0.8982   -0.6974 N   0  0  0  0  0  0  0  0  0  0  0  0
   -2.9518    1.7085    0.1422 C   0  0  0  0  0  0  0  0  0  0  0  0
   -3.5259    1.0210    1.3248 C   0  0  0  0  0  0  0  0  0  0  0  0
   -4.3778   -0.1411    0.9369 C   0  0  0  0  0  0  0  0  0  0  0  0
   -5.0629   -0.9210    1.8681 O   0  0  0  0  0  1  0  0  0  0  0  0
   -4.4830   -0.4276   -0.2724 O   0  0  0  0  0  0  0  0  0  0  0  0
   -1.0105   -2.0641   -0.9397 C   0  0  1  0  0  0  0  0  0  0  0  0
   -1.7722   -1.9920   -2.4010 C   0  0  0  0  0  0  0  0  0  0  0  0
    0.1094   -2.9457   -1.4656 O   0  0  0  0  0  0  0  0  0  0  0  0
    6.0163   -2.0644   -0.3791 C   0  0  0  0  0  0  0  0  0  0  0  0
    4.4494   -2.0087   -0.8688 C   0  0  2  0  0  0  0  0  0  0  0  0
    4.6776   -0.6978   -1.8194 C   0  0  0  0  0  0  0  0  0  0  0  0
    5.1406    0.3782   -1.0197 N   0  0  0  0  0  0  0  0  0  0  0  0
    6.3666    0.7642   -0.6869 N   0  0  0  0  0  0  0  0  0  0  0  0
    6.2660    1.8546    0.0987 C   0  0  0  0  0  0  0  0  0  0  0  0
    4.9666    2.1369    0.2469 N   0  0  0  0  0  0  0  0  0  0  0  0
    4.3080    1.2430   -0.4292 N   0  0  0  0  0  0  0  0  0  0  0  0
    3.9608   -1.2009    0.3817 N   0  0  0  0  0  0  0  0  0  0  0  0
    2.5674   -0.9311    0.3374 C   0  0  0  0  0  0  0  0  0  0  0  0
    2.0218   -0.2461    1.3483 N   0  0  0  0  0  0  0  0  0  0  0  0
    0.7049    0.0574    1.3926 C   0  0  0  0  0  0  0  0  0  0  0  0
   -0.1355   -0.3375    0.3761 C   0  0  0  0  0  0  0  0  0  0  0  0
   -1.4845   -0.0674    0.3490 C   0  0  0  0  0  0  0  0  0  0  0  0
   -2.2677   -0.4916   -0.6981 C   0  0  0  0  0  0  0  0  0  0  0  0
   -3.6173   -0.2688   -0.8094 O   0  0  0  0  0  0  0  0  0  0  0  0
   -4.4331    0.3913    0.0563 C   0  0  0  0  0  0  0  0  0  0  0  0
   -5.4940   -0.2920    0.6206 C   0  0  0  0  0  0  0  0  0  0  0  0
   -6.3628    0.3128    1.5067 C   0  0  0  0  0  0  0  0  0  0  0  0
   -6.2090    1.6356    1.8706 C   0  0  0  0  0  0  0  0  0  0  0  0
   -7.0480    2.2547    2.7391 F   0  0  0  0  0  0  0  0  0  0  0  0
   -5.1516    2.3210    1.3098 C   0  0  0  0  0  0  0  0  0  0  0  0
   -4.2886    1.7115    0.4264 C   0  0  0  0  0  0  0  0  0  0  0  0
   -3.2412    2.3782   -0.1336 F   0  0  0  0  0  0  0  0  0  0  0  0
   -1.6132   -1.1900   -1.6920 C   0  0  0  0  0  0  0  0  0  0  0  0
   -2.3039   -1.5956   -2.6714 O   0  0  0  0  0  0  0  0  0  0  0  0
   -0.3139   -1.4662   -1.6943 N   0  0  0  0  0  0  0  0  0  0  0  0
    0.3297   -2.2163   -2.7841 C   0  0  0  0  0  0  0  0  0  0  0  0
    0.4436   -1.0498   -0.6708 C   0  0  0  0  0  0  0  0  0  0  0  0
    1.7448   -1.3150   -0.6530 N   0  0  0  0  0  0  0  0  0  0  0  0
  1  2  1  0
  2  3  1  0
  2  4  1  0
  4  5  1  0
  5  6  1  0
  6  7  2  0
  6  8  1  0
  9  8  1  1
  9 10  1  0
 10 11  2  0
 10 12  1  0
 12 13  1  0
 13 14  1  0
 14 15  1  0
 15 16  1  0
 15 17  2  0
  9 18  1  0
 18 19  1  6
 18 20  1  0
 22 21  1  1
 22 23  1  0
 23 24  1  0
 24 25  1  0
 25 26  2  0
 26 27  1  0
 27 28  2  0
 22 29  1  0
 29 30  1  0
 30 31  2  0
 31 32  1  0
 32 33  2  0
 33 34  1  0
 34 35  2  0
 35 36  1  0
 36 37  1  0
 37 38  2  0
 38 39  1  0
 39 40  2  0
 40 41  1  0
 40 42  1  0
 42 43  2  0
 43 44  1  0
 35 45  1  0
 45 46  2  0
 45 47  1  0
 47 48  1  0
 47 49  1  0
 49 50  2  0
 28 24  1  0
 50 30  1  0
 49 33  1  0
 43 37  1  0
M  RAD  1  16   2
M  END

