
     RDKit          3D

 41 43  0  0  0  0  0  0  0  0999 V2000
   -2.6724   -1.6861   -0.1302 C   0  0  0  0  0  0  0  0  0  0  0  0
   -2.0685   -0.4217    0.2285 N   0  0  0  0  0  0  0  0  0  0  0  0
   -0.7805   -0.4159    0.7417 C   0  0  0  0  0  0  0  0  0  0  0  0
   -0.1253   -1.4741    0.9027 O   0  0  0  0  0  0  0  0  0  0  0  0
   -0.0293    0.8688    1.1620 C   0  0  2  0  0  0  0  0  0  0  0  0
   -0.5664    1.9081    0.1204 C   0  0  0  0  0  0  0  0  0  0  0  0
   -0.6114    1.5362   -1.1460 O   0  0  0  0  0  0  0  0  0  0  0  0
    1.3554    0.6081    0.7027 N   0  0  0  0  0  0  0  0  0  0  0  0
    1.6480   -0.0750   -0.4626 C   0  0  0  0  0  0  0  0  0  0  0  0
    3.0988   -0.3245   -0.9031 C   0  0  0  0  0  0  0  0  0  0  0  0
    0.7517   -0.5240   -1.2159 O   0  0  0  0  0  0  0  0  0  0  0  0
    4.8802   -0.9193   -2.7667 C   0  0  0  0  0  0  0  0  0  0  0  0
    5.4212   -0.1894   -1.3770 C   0  0  2  0  0  0  0  0  0  0  0  0
    4.7238   -1.3187   -0.3919 C   0  0  0  0  0  0  0  0  0  0  0  0
    5.1187   -0.8051    0.9059 N   0  0  0  0  0  0  0  0  0  0  0  0
    4.4329    0.0545    1.6333 N   0  0  0  0  0  0  0  0  0  0  0  0
    5.1001    0.3012    2.7690 C   0  0  0  0  0  0  0  0  0  0  0  0
    6.2165   -0.4441    2.6980 N   0  0  0  0  0  0  0  0  0  0  0  0
    6.2138   -1.1105    1.5610 N   0  0  0  0  0  0  0  0  0  0  0  0
    4.2422    0.8381   -1.2339 N   0  0  0  0  0  0  0  0  0  0  0  0
    2.9419    0.4135   -1.1458 C   0  0  0  0  0  0  0  0  0  0  0  0
    2.5573   -0.8715   -1.1716 N   0  0  0  0  0  0  0  0  0  0  0  0
    1.2622   -1.2388   -1.0813 C   0  0  0  0  0  0  0  0  0  0  0  0
    0.2856   -0.2511   -0.9566 C   0  0  0  0  0  0  0  0  0  0  0  0
   -1.0355   -0.5241   -0.8597 C   0  0  0  0  0  0  0  0  0  0  0  0
   -2.0335    0.4839   -0.7323 C   0  0  0  0  0  0  0  0  0  0  0  0
   -3.2672    0.0700   -0.6503 O   0  0  0  0  0  0  0  0  0  0  0  0
   -4.3690   -0.0011    0.0745 C   0  0  0  0  0  0  0  0  0  0  0  0
   -4.7835   -1.3086    0.4434 C   0  0  0  0  0  0  0  0  0  0  0  0
   -5.8882   -1.5644    1.1824 C   0  0  0  0  0  0  0  0  0  0  0  0
   -6.6570   -0.5227    1.6043 C   0  0  0  0  0  0  0  0  0  0  0  0
   -7.7591   -0.8132    2.3447 F   0  0  0  0  0  0  0  0  0  0  0  0
   -6.3056    0.7608    1.2777 C   0  0  0  0  0  0  0  0  0  0  0  0
   -5.1743    1.0112    0.5214 C   0  0  0  0  0  0  0  0  0  0  0  0
   -4.9300    2.3272    0.2354 F   0  0  0  0  0  0  0  0  0  0  0  0
   -1.5609    1.7441   -0.7156 C   0  0  0  0  0  0  0  0  0  0  0  0
   -2.2914    2.7593   -0.6128 O   0  0  0  0  0  0  0  0  0  0  0  0
   -0.2444    2.0406   -0.8108 N   0  0  0  0  0  0  0  0  0  0  0  0
    0.2382    3.4128   -0.7894 C   0  0  0  0  0  0  0  0  0  0  0  0
    0.6821    1.0774   -0.9299 C   0  0  0  0  0  0  0  0  0  0  0  0
    1.9830    1.3367   -1.0255 N   0  0  0  0  0  0  0  0  0  0  0  0
  1  2  1  0
  2  3  1  0
  3  4  2  0
  3  5  1  0
  5  6  1  6
  6  7  1  0
  5  8  1  0
  8  9  1  0
  9 10  1  0
  9 11  2  0
 13 12  1  6
 13 14  1  0
 14 15  1  0
 15 16  1  0
 16 17  2  0
 17 18  1  0
 18 19  2  0
 13 20  1  0
 20 21  1  0
 21 22  2  0
 22 23  1  0
 23 24  2  0
 24 25  1  0
 25 26  2  0
 26 27  1  0
 27 28  1  0
 28 29  2  0
 29 30  1  0
 30 31  2  0
 31 32  1  0
 31 33  1  0
 33 34  2  0
 34 35  1  0
 26 36  1  0
 36 37  2  0
 36 38  1  0
 38 39  1  0
 38 40  1  0
 40 41  2  0
 19 15  1  0
 41 21  1  0
 40 24  1  0
 34 28  1  0
M  END

