
     RDKit          3D

 45 48  0  0  0  0  0  0  0  0999 V2000
   -4.2355    0.6400   -0.7326 C   0  0  0  0  0  0  0  0  0  0  0  0
   -3.0514   -0.0238   -1.2069 N   0  0  0  0  0  0  0  0  0  0  0  0
   -1.9791   -0.1609   -0.3498 C   0  0  0  0  0  0  0  0  0  0  0  0
   -2.0342    0.2784    0.8045 O   0  0  0  0  0  0  0  0  0  0  0  0
   -0.6334   -0.8937   -0.8287 C   0  0  2  0  0  0  0  0  0  0  0  0
   -1.1237   -2.4590   -0.5336 C   0  0  0  0  0  0  0  0  0  0  0  0
   -0.4006   -2.8156    0.6764 C   0  0  0  0  0  0  0  0  0  0  0  0
   -0.5985   -1.5115    1.4726 C   0  0  0  0  0  0  0  0  0  0  0  0
    0.1405   -0.7227    0.5376 N   0  0  0  0  0  0  0  0  0  0  0  0
    1.2853    0.0677    0.6342 C   0  0  0  0  0  0  0  0  0  0  0  0
    1.8656    0.1752    1.7332 O   0  0  0  0  0  0  0  0  0  0  0  0
    1.8130    0.7741   -0.5459 C   0  0  0  0  0  0  0  0  0  0  0  0
    3.1648    1.5908   -0.0140 C   0  0  1  0  0  0  0  0  0  0  0  0
    3.4601    2.2304   -1.5493 C   0  0  0  0  0  0  0  0  0  0  0  0
    2.3269    2.8306    0.3971 O   0  0  0  0  0  0  0  0  0  0  0  0
   -6.0387    0.4596   -0.2504 C   0  0  0  0  0  0  0  0  0  0  0  0
   -4.5141   -0.1268   -0.3090 C   0  0  2  0  0  0  0  0  0  0  0  0
   -4.6183   -0.8540    1.1493 C   0  0  0  0  0  0  0  0  0  0  0  0
   -5.7002   -1.7942    1.0235 N   0  0  0  0  0  0  0  0  0  0  0  0
   -6.9946   -1.6599    1.2509 N   0  0  0  0  0  0  0  0  0  0  0  0
   -7.6363   -2.8124    0.9977 C   0  0  0  0  0  0  0  0  0  0  0  0
   -6.6867   -3.6783    0.6006 N   0  0  0  0  0  0  0  0  0  0  0  0
   -5.5259   -3.0431    0.6235 N   0  0  0  0  0  0  0  0  0  0  0  0
   -3.9028    1.1927    0.2408 N   0  0  0  0  0  0  0  0  0  0  0  0
   -2.5088    1.2536    0.4074 C   0  0  0  0  0  0  0  0  0  0  0  0
   -1.9862    2.3899    0.8805 N   0  0  0  0  0  0  0  0  0  0  0  0
   -0.6606    2.5656    1.0824 C   0  0  0  0  0  0  0  0  0  0  0  0
    0.2503    1.5626    0.8067 C   0  0  0  0  0  0  0  0  0  0  0  0
    1.6143    1.6851    0.9929 C   0  0  0  0  0  0  0  0  0  0  0  0
    2.4935    0.6566    0.7046 C   0  0  0  0  0  0  0  0  0  0  0  0
    3.8669    0.7793    0.8918 O   0  0  0  0  0  0  0  0  0  0  0  0
    4.8002    0.6578   -0.0991 C   0  0  0  0  0  0  0  0  0  0  0  0
    5.8010   -0.2961   -0.0816 C   0  0  0  0  0  0  0  0  0  0  0  0
    6.6834   -0.3175   -1.1411 C   0  0  0  0  0  0  0  0  0  0  0  0
    6.6036    0.5637   -2.1983 C   0  0  0  0  0  0  0  0  0  0  0  0
    7.4690    0.5421   -3.2366 F   0  0  0  0  0  0  0  0  0  0  0  0
    5.6041    1.4912   -2.1826 C   0  0  0  0  0  0  0  0  0  0  0  0
    4.6999    1.5619   -1.1611 C   0  0  0  0  0  0  0  0  0  0  0  0
    3.7189    2.4974   -1.1788 F   0  0  0  0  0  0  0  0  0  0  0  0
    1.8974   -0.4914    0.2196 C   0  0  0  0  0  0  0  0  0  0  0  0
    2.6658   -1.4573   -0.0571 O   0  0  0  0  0  0  0  0  0  0  0  0
    0.5652   -0.5971    0.0429 N   0  0  0  0  0  0  0  0  0  0  0  0
   -0.0217   -1.8377   -0.4753 C   0  0  0  0  0  0  0  0  0  0  0  0
   -0.3028    0.3942    0.3186 C   0  0  0  0  0  0  0  0  0  0  0  0
   -1.6355    0.2753    0.1370 N   0  0  0  0  0  0  0  0  0  0  0  0
  1  2  1  0
  2  3  1  0
  3  4  2  0
  5  3  1  1
  5  6  1  0
  6  7  1  0
  7  8  1  0
  8  9  1  0
  9 10  1  0
 10 11  2  0
 10 12  1  0
 12 13  1  0
 13 14  1  6
 13 15  1  0
 17 16  1  1
 17 18  1  0
 18 19  1  0
 19 20  1  0
 20 21  2  0
 21 22  1  0
 22 23  2  0
 17 24  1  0
 24 25  1  0
 25 26  2  0
 26 27  1  0
 27 28  2  0
 28 29  1  0
 29 30  2  0
 30 31  1  0
 31 32  1  0
 32 33  2  0
 33 34  1  0
 34 35  2  0
 35 36  1  0
 35 37  1  0
 37 38  2  0
 38 39  1  0
 30 40  1  0
 40 41  2  0
 40 42  1  0
 42 43  1  0
 42 44  1  0
 44 45  2  0
  9  5  1  0
 23 19  1  0
 45 25  1  0
 44 28  1  0
 38 32  1  0
M  END

