
     RDKit          3D

 50 52  0  0  0  0  0  0  0  0999 V2000
    6.8088   -2.5522    0.7401 C   0  0  0  0  0  0  0  0  0  0  0  0
    6.0343   -1.0169    1.3127 S   0  0  0  0  0  0  0  0  0  0  0  0
    4.2225   -1.2328    1.2073 C   0  0  0  0  0  0  0  0  0  0  0  0
    3.8756   -1.3413   -0.2549 C   0  0  0  0  0  0  0  0  0  0  0  0
    2.4286   -1.5402   -0.5127 C   0  0  0  0  0  0  0  0  0  0  0  0
    1.5817   -0.4437    0.0414 C   0  0  0  0  0  0  0  0  0  0  0  0
    2.1096    0.3922    0.8239 O   0  0  0  0  0  0  0  0  0  0  0  0
    0.1895   -0.3602   -0.3245 N   0  0  0  0  0  0  0  0  0  0  0  0
   -0.5622    0.8312    0.3532 C   0  0  1  0  0  0  0  0  0  0  0  0
   -1.1768    1.5017   -1.0063 C   0  0  0  0  0  0  0  0  0  0  0  0
   -0.0281    1.8894   -1.8303 C   0  0  0  0  0  0  0  0  0  0  0  0
    0.9099    0.8531   -2.3037 C   0  0  0  0  0  0  0  0  0  0  0  0
    0.7007    3.1155   -1.2849 C   0  0  0  0  0  0  0  0  0  0  0  0
   -1.9130    0.0182    0.7092 C   0  0  0  0  0  0  0  0  0  0  0  0
   -2.0340   -1.1592    0.4569 O   0  0  0  0  0  0  0  0  0  0  0  0
   -2.8912    0.8094    1.3207 N   0  0  0  0  0  0  0  0  0  0  0  0
   -4.1801    0.2723    1.7089 C   0  0  0  0  0  0  0  0  0  0  0  0
   -4.8489   -0.2510    0.4435 C   0  0  0  0  0  0  0  0  0  0  0  0
   -4.9863    0.9101   -0.5363 C   0  0  0  0  0  0  0  0  0  0  0  0
   -6.2407   -0.6956    0.9047 C   0  0  0  0  0  0  0  0  0  0  0  0
    6.1235   -2.1287    0.7228 C   0  0  0  0  0  0  0  0  0  0  0  0
    4.9543   -2.0132   -0.4412 C   0  0  2  0  0  0  0  0  0  0  0  0
    5.5003   -0.6402   -1.1701 C   0  0  0  0  0  0  0  0  0  0  0  0
    5.5140    0.4105   -0.2283 N   0  0  0  0  0  0  0  0  0  0  0  0
    4.5855    1.2910    0.0946 N   0  0  0  0  0  0  0  0  0  0  0  0
    5.0590    2.0868    1.0378 C   0  0  0  0  0  0  0  0  0  0  0  0
    6.2982    1.7202    1.3265 N   0  0  0  0  0  0  0  0  0  0  0  0
    6.5621    0.6943    0.5443 N   0  0  0  0  0  0  0  0  0  0  0  0
    3.9341   -1.3219    0.5299 N   0  0  0  0  0  0  0  0  0  0  0  0
    2.6754   -0.9671    0.0521 C   0  0  0  0  0  0  0  0  0  0  0  0
    2.3931   -1.2390   -1.2376 N   0  0  0  0  0  0  0  0  0  0  0  0
    1.2011   -0.9294   -1.7787 C   0  0  0  0  0  0  0  0  0  0  0  0
    0.2212   -0.3195   -1.0279 C   0  0  0  0  0  0  0  0  0  0  0  0
   -1.0223    0.0180   -1.5434 C   0  0  0  0  0  0  0  0  0  0  0  0
   -1.9939    0.6331   -0.7639 C   0  0  0  0  0  0  0  0  0  0  0  0
   -3.2294    0.9727   -1.2618 O   0  0  0  0  0  0  0  0  0  0  0  0
   -4.4350    0.5405   -0.8336 C   0  0  0  0  0  0  0  0  0  0  0  0
   -5.3686    1.4326   -0.3712 C   0  0  0  0  0  0  0  0  0  0  0  0
   -6.6069    1.0786    0.0783 C   0  0  0  0  0  0  0  0  0  0  0  0
   -6.9644   -0.2431    0.0780 C   0  0  0  0  0  0  0  0  0  0  0  0
   -8.1982   -0.6228    0.5230 F   0  0  0  0  0  0  0  0  0  0  0  0
   -6.0627   -1.1774   -0.3763 C   0  0  0  0  0  0  0  0  0  0  0  0
   -4.7945   -0.7872   -0.8337 C   0  0  0  0  0  0  0  0  0  0  0  0
   -3.9763   -1.7560   -1.2589 F   0  0  0  0  0  0  0  0  0  0  0  0
   -1.6388    0.8831    0.5490 C   0  0  0  0  0  0  0  0  0  0  0  0
   -2.4820    1.4368    1.2922 O   0  0  0  0  0  0  0  0  0  0  0  0
   -0.4173    0.5428    1.0258 N   0  0  0  0  0  0  0  0  0  0  0  0
   -0.0826    0.8252    2.4207 C   0  0  0  0  0  0  0  0  0  0  0  0
    0.5224   -0.0467    0.2901 C   0  0  0  0  0  0  0  0  0  0  0  0
    1.7289   -0.3741    0.7906 N   0  0  0  0  0  0  0  0  0  0  0  0
  1  2  1  0
  2  3  1  0
  3  4  1  0
  4  5  1  0
  5  6  1  0
  6  7  2  0
  6  8  1  0
  8  9  1  0
  9 10  1  6
 10 11  1  0
 11 12  1  0
 11 13  1  0
  9 14  1  0
 14 15  2  0
 14 16  1  0
 16 17  1  0
 17 18  1  0
 18 19  1  0
 18 20  1  0
 22 21  1  1
 22 23  1  0
 23 24  1  0
 24 25  1  0
 25 26  2  0
 26 27  1  0
 27 28  2  0
 22 29  1  0
 29 30  1  0
 30 31  2  0
 31 32  1  0
 32 33  2  0
 33 34  1  0
 34 35  2  0
 35 36  1  0
 36 37  1  0
 37 38  2  0
 38 39  1  0
 39 40  2  0
 40 41  1  0
 40 42  1  0
 42 43  2  0
 43 44  1  0
 35 45  1  0
 45 46  2  0
 45 47  1  0
 47 48  1  0
 47 49  1  0
 49 50  2  0
 28 24  1  0
 50 30  1  0
 49 33  1  0
 43 37  1  0
M  END

