
     RDKit          3D

 51 54  0  0  0  0  0  0  0  0999 V2000
   -5.4115   -0.1928   -0.1848 C   0  0  0  0  0  0  0  0  0  0  0  0
   -5.0968    1.1531   -0.8006 C   0  0  0  0  0  0  0  0  0  0  0  0
   -5.4476    2.2795    0.1442 C   0  0  0  0  0  0  0  0  0  0  0  0
   -3.6653    1.2319   -1.2784 C   0  0  0  0  0  0  0  0  0  0  0  0
   -2.7101    1.0226   -0.1379 C   0  0  0  0  0  0  0  0  0  0  0  0
   -3.2045    0.8501    0.9958 O   0  0  0  0  0  0  0  0  0  0  0  0
   -1.3289    1.0229   -0.3494 N   0  0  0  0  0  0  0  0  0  0  0  0
   -0.3339    0.8161    0.7794 C   0  0  2  0  0  0  0  0  0  0  0  0
    0.4233   -0.4518    0.2542 C   0  0  0  0  0  0  0  0  0  0  0  0
    0.1880   -1.0008   -0.7965 O   0  0  0  0  0  0  0  0  0  0  0  0
    1.4549   -0.9841    1.0768 N   0  0  0  0  0  0  0  0  0  0  0  0
    2.1763   -2.1390    0.6398 C   0  0  0  0  0  0  0  0  0  0  0  0
    2.9144   -1.9911   -0.6380 C   0  0  0  0  0  0  0  0  0  0  0  0
    3.8957   -0.9063   -0.5155 C   0  0  0  0  0  0  0  0  0  0  0  0
    4.1175   -0.1530    0.6036 C   0  0  0  0  0  0  0  0  0  0  0  0
    5.0829    0.7308    0.3185 N   0  0  0  0  0  0  0  0  0  0  0  0
    5.4364    0.5151   -0.9480 C   0  0  0  0  0  0  0  0  0  0  0  0
    4.7324   -0.4815   -1.4979 N   0  0  0  0  0  0  0  0  0  0  0  0
   -1.4054    0.1406    1.8771 C   0  0  1  0  0  0  0  0  0  0  0  0
   -1.4333   -1.3936    1.3846 C   0  0  0  0  0  0  0  0  0  0  0  0
   -0.3844   -0.0688    2.9474 O   0  0  0  0  0  0  0  0  0  0  0  0
   -4.7755   -0.0984    0.2007 C   0  0  0  0  0  0  0  0  0  0  0  0
   -4.5288    0.4333   -1.3780 C   0  0  2  0  0  0  0  0  0  0  0  0
   -5.4505   -0.8407   -1.9793 C   0  0  0  0  0  0  0  0  0  0  0  0
   -6.7214   -0.5755   -1.3322 N   0  0  0  0  0  0  0  0  0  0  0  0
   -7.1336   -1.0186   -0.1685 N   0  0  0  0  0  0  0  0  0  0  0  0
   -8.3655   -0.5213    0.0256 C   0  0  0  0  0  0  0  0  0  0  0  0
   -8.6945    0.2290   -1.0359 N   0  0  0  0  0  0  0  0  0  0  0  0
   -7.6495    0.1777   -1.8685 N   0  0  0  0  0  0  0  0  0  0  0  0
   -3.1861   -0.3821   -1.5678 N   0  0  0  0  0  0  0  0  0  0  0  0
   -2.1199   -0.1244   -0.7228 C   0  0  0  0  0  0  0  0  0  0  0  0
   -2.1082    0.7729    0.2704 N   0  0  0  0  0  0  0  0  0  0  0  0
   -1.0152    0.9574    1.0490 C   0  0  0  0  0  0  0  0  0  0  0  0
    0.1228    0.1988    0.8140 C   0  0  0  0  0  0  0  0  0  0  0  0
    1.2634    0.3296    1.5587 C   0  0  0  0  0  0  0  0  0  0  0  0
    2.3419   -0.4473    1.2723 C   0  0  0  0  0  0  0  0  0  0  0  0
    3.4869   -0.3007    2.0366 O   0  0  0  0  0  0  0  0  0  0  0  0
    4.6980    0.0714    1.4690 C   0  0  0  0  0  0  0  0  0  0  0  0
    5.8203   -0.7283    1.5400 C   0  0  0  0  0  0  0  0  0  0  0  0
    7.0208   -0.3161    0.9547 C   0  0  0  0  0  0  0  0  0  0  0  0
    7.1262    0.8885    0.2939 C   0  0  0  0  0  0  0  0  0  0  0  0
    8.2937    1.2831   -0.2720 F   0  0  0  0  0  0  0  0  0  0  0  0
    5.9991    1.6843    0.2264 C   0  0  0  0  0  0  0  0  0  0  0  0
    4.8060    1.2704    0.8103 C   0  0  0  0  0  0  0  0  0  0  0  0
    3.6971    2.0572    0.7419 F   0  0  0  0  0  0  0  0  0  0  0  0
    2.2969   -1.3522    0.2532 C   0  0  0  0  0  0  0  0  0  0  0  0
    3.2972   -2.0813   -0.0219 O   0  0  0  0  0  0  0  0  0  0  0  0
    1.2003   -1.4866   -0.4723 N   0  0  0  0  0  0  0  0  0  0  0  0
    1.1756   -2.4644   -1.5608 C   0  0  0  0  0  0  0  0  0  0  0  0
    0.1077   -0.7265   -0.2117 C   0  0  0  0  0  0  0  0  0  0  0  0
   -1.0052   -0.8421   -0.9250 N   0  0  0  0  0  0  0  0  0  0  0  0
  1  2  1  0
  2  3  1  0
  2  4  1  0
  4  5  1  0
  5  6  2  0
  5  7  1  0
  8  7  1  6
  8  9  1  0
  9 10  2  0
  9 11  1  0
 11 12  1  0
 12 13  1  0
 13 14  1  0
 14 15  2  0
 15 16  1  0
 16 17  1  0
 17 18  2  0
  8 19  1  0
 19 20  1  6
 19 21  1  0
 23 22  1  1
 23 24  1  0
 24 25  1  0
 25 26  1  0
 26 27  2  0
 27 28  1  0
 28 29  2  0
 23 30  1  0
 30 31  1  0
 31 32  2  0
 32 33  1  0
 33 34  2  0
 34 35  1  0
 35 36  2  0
 36 37  1  0
 37 38  1  0
 38 39  2  0
 39 40  1  0
 40 41  2  0
 41 42  1  0
 41 43  1  0
 43 44  2  0
 44 45  1  0
 36 46  1  0
 46 47  2  0
 46 48  1  0
 48 49  1  0
 48 50  1  0
 50 51  2  0
 18 14  1  0
 29 25  1  0
 51 31  1  0
 50 34  1  0
 44 38  1  0
M  END

