
     RDKit          3D

 52 54  0  0  0  0  0  0  0  0999 V2000
   -4.9419    1.9243   -1.4594 C   0  0  0  0  0  0  0  0  0  0  0  0
   -4.6356    1.8756    0.0175 C   0  0  0  0  0  0  0  0  0  0  0  0
   -4.3341    3.2380    0.5361 C   0  0  0  0  0  0  0  0  0  0  0  0
   -3.5912    0.8540    0.3565 C   0  0  0  0  0  0  0  0  0  0  0  0
   -4.0279   -0.5425   -0.0443 C   0  0  0  0  0  0  0  0  0  0  0  0
   -2.9672   -1.4966    0.3085 N   0  0  0  0  0  0  0  0  0  0  0  0
   -1.7298   -1.3203   -0.2694 C   0  0  0  0  0  0  0  0  0  0  0  0
   -1.5134   -0.4051   -1.0498 O   0  0  0  0  0  0  0  0  0  0  0  0
   -0.5020   -2.2674    0.0193 C   0  0  2  0  0  0  0  0  0  0  0  0
   -0.0989   -1.6082    1.4793 C   0  0  0  0  0  0  0  0  0  0  0  0
    1.0791   -2.4323    1.9031 C   0  0  0  0  0  0  0  0  0  0  0  0
    0.6575   -3.8993    2.0138 C   0  0  0  0  0  0  0  0  0  0  0  0
    2.2482   -2.4071    0.9797 C   0  0  0  0  0  0  0  0  0  0  0  0
    0.5908   -1.5638   -0.8391 N   0  0  0  0  0  0  0  0  0  0  0  0
    0.9978   -0.2636   -0.4863 C   0  0  0  0  0  0  0  0  0  0  0  0
    0.4323    0.2264    0.5195 O   0  0  0  0  0  0  0  0  0  0  0  0
    2.0263    0.5078   -1.2337 C   0  0  0  0  0  0  0  0  0  0  0  0
    2.1953    1.8440   -0.5900 C   0  0  0  0  0  0  0  0  0  0  0  0
    3.2354    2.6208   -1.3496 C   0  0  0  0  0  0  0  0  0  0  0  0
    4.5400    1.9017   -1.3348 C   0  0  0  0  0  0  0  0  0  0  0  0
    5.6568    2.4233   -1.9640 O   0  0  0  0  0  1  0  0  0  0  0  0
    4.6823    0.7903   -0.7502 O   0  0  0  0  0  0  0  0  0  0  0  0
    5.6888   -0.4330    1.9866 C   0  0  0  0  0  0  0  0  0  0  0  0
    4.5563   -0.9657    0.8866 C   0  0  2  0  0  0  0  0  0  0  0  0
    5.0935    0.1097   -0.2778 C   0  0  0  0  0  0  0  0  0  0  0  0
    6.4807   -0.2709   -0.4710 N   0  0  0  0  0  0  0  0  0  0  0  0
    7.4728    0.2481    0.2273 N   0  0  0  0  0  0  0  0  0  0  0  0
    8.6349   -0.2909   -0.1674 C   0  0  0  0  0  0  0  0  0  0  0  0
    8.3342   -1.1634   -1.1352 N   0  0  0  0  0  0  0  0  0  0  0  0
    7.0334   -1.1287   -1.2946 N   0  0  0  0  0  0  0  0  0  0  0  0
    3.4573    0.0390    1.4136 N   0  0  0  0  0  0  0  0  0  0  0  0
    2.2360   -0.0682    0.7168 C   0  0  0  0  0  0  0  0  0  0  0  0
    2.0678   -0.9394   -0.2767 N   0  0  0  0  0  0  0  0  0  0  0  0
    0.8941   -1.0568   -0.9614 C   0  0  0  0  0  0  0  0  0  0  0  0
   -0.1290   -0.2151   -0.5688 C   0  0  0  0  0  0  0  0  0  0  0  0
   -1.3438   -0.2815   -1.2196 C   0  0  0  0  0  0  0  0  0  0  0  0
   -2.3777    0.5585   -0.8340 C   0  0  0  0  0  0  0  0  0  0  0  0
   -3.5686    0.4548   -1.5126 O   0  0  0  0  0  0  0  0  0  0  0  0
   -4.7774    0.1344   -0.9539 C   0  0  0  0  0  0  0  0  0  0  0  0
   -5.8359    1.0361   -1.0419 C   0  0  0  0  0  0  0  0  0  0  0  0
   -7.0672    0.7428   -0.4890 C   0  0  0  0  0  0  0  0  0  0  0  0
   -7.2939   -0.4542    0.1708 C   0  0  0  0  0  0  0  0  0  0  0  0
   -8.5090   -0.7248    0.7073 F   0  0  0  0  0  0  0  0  0  0  0  0
   -6.2467   -1.3480    0.2587 C   0  0  0  0  0  0  0  0  0  0  0  0
   -5.0223   -1.0553   -0.2916 C   0  0  0  0  0  0  0  0  0  0  0  0
   -3.9821   -1.9343   -0.2086 F   0  0  0  0  0  0  0  0  0  0  0  0
   -2.1758    1.4578    0.2051 C   0  0  0  0  0  0  0  0  0  0  0  0
   -3.1156    2.1994    0.5326 O   0  0  0  0  0  0  0  0  0  0  0  0
   -0.9763    1.4938    0.8168 N   0  0  0  0  0  0  0  0  0  0  0  0
   -0.7738    2.4328    1.8978 C   0  0  0  0  0  0  0  0  0  0  0  0
    0.0194    0.6843    0.4449 C   0  0  0  0  0  0  0  0  0  0  0  0
    1.2259    0.7386    1.0790 N   0  0  0  0  0  0  0  0  0  0  0  0
  1  2  1  0
  2  3  1  0
  2  4  1  0
  4  5  1  0
  5  6  1  0
  6  7  1  0
  7  8  2  0
  7  9  1  0
  9 10  1  1
 10 11  1  0
 11 12  1  0
 11 13  1  0
  9 14  1  0
 14 15  1  0
 15 16  2  0
 15 17  1  0
 17 18  1  0
 18 19  1  0
 19 20  1  0
 20 21  1  0
 20 22  2  0
 24 23  1  1
 24 25  1  0
 25 26  1  0
 26 27  1  0
 27 28  2  0
 28 29  1  0
 29 30  2  0
 24 31  1  0
 31 32  1  0
 32 33  2  0
 33 34  1  0
 34 35  2  0
 35 36  1  0
 36 37  2  0
 37 38  1  0
 38 39  1  0
 39 40  2  0
 40 41  1  0
 41 42  2  0
 42 43  1  0
 42 44  1  0
 44 45  2  0
 45 46  1  0
 37 47  1  0
 47 48  2  0
 47 49  1  0
 49 50  1  0
 49 51  1  0
 51 52  2  0
 30 26  1  0
 52 32  1  0
 51 35  1  0
 45 39  1  0
M  RAD  1  21   2
M  END

