
     RDKit          3D

 48 50  0  0  0  0  0  0  0  0999 V2000
    2.2417   -0.0737   -2.5711 C   0  0  0  0  0  0  0  0  0  0  0  0
    0.8167    0.0041   -2.8580 C   0  0  0  0  0  0  0  0  0  0  0  0
    0.5918   -0.5425   -4.2673 C   0  0  0  0  0  0  0  0  0  0  0  0
   -0.2112   -0.3927   -1.8919 C   0  0  0  0  0  0  0  0  0  0  0  0
   -0.0094    0.5001   -0.5823 C   0  0  2  0  0  0  0  0  0  0  0  0
    1.1857    0.2204    0.0328 N   0  0  0  0  0  0  0  0  0  0  0  0
    2.3044   -0.0466    0.6045 C   0  0  0  0  0  0  0  0  0  0  0  0
    2.8640   -1.1071    0.1650 O   0  0  0  0  0  0  0  0  0  0  0  0
    3.0220    0.7342    1.7002 C   0  0  0  0  0  0  0  0  0  0  0  0
    4.4974    0.7433    1.5096 C   0  0  0  0  0  0  0  0  0  0  0  0
    5.1250   -0.4504    1.4590 O   0  0  0  0  0  0  0  0  0  0  0  0
   -1.1581   -0.0626    0.3187 C   0  0  0  0  0  0  0  0  0  0  0  0
   -1.2101   -1.1154    0.8869 O   0  0  0  0  0  0  0  0  0  0  0  0
   -2.2182    0.8592    0.4386 N   0  0  0  0  0  0  0  0  0  0  0  0
   -3.4133    0.7640    1.1694 C   0  0  0  0  0  0  0  0  0  0  0  0
   -4.2944   -0.4852    0.5286 C   0  0  1  0  0  0  0  0  0  0  0  0
   -5.7626    0.2718    0.9473 C   0  0  0  0  0  0  0  0  0  0  0  0
   -4.3714    0.1793   -0.8834 O   0  0  0  0  0  0  0  0  0  0  0  0
    5.7178    0.5380   -1.9878 C   0  0  0  0  0  0  0  0  0  0  0  0
    4.2223    0.6423   -1.2903 C   0  0  2  0  0  0  0  0  0  0  0  0
    4.7071   -0.0313    0.1374 C   0  0  0  0  0  0  0  0  0  0  0  0
    5.7282    0.8227    0.6475 N   0  0  0  0  0  0  0  0  0  0  0  0
    7.0057    0.6368    0.3477 N   0  0  0  0  0  0  0  0  0  0  0  0
    7.7331    1.5899    0.9688 C   0  0  0  0  0  0  0  0  0  0  0  0
    6.8715    2.3738    1.6634 N   0  0  0  0  0  0  0  0  0  0  0  0
    5.6705    1.8671    1.4357 N   0  0  0  0  0  0  0  0  0  0  0  0
    3.7523   -0.7461   -1.8709 N   0  0  0  0  0  0  0  0  0  0  0  0
    2.4202   -1.0254   -1.4590 C   0  0  0  0  0  0  0  0  0  0  0  0
    1.8636   -2.1891   -1.8761 N   0  0  0  0  0  0  0  0  0  0  0  0
    0.6057   -2.5210   -1.5255 C   0  0  0  0  0  0  0  0  0  0  0  0
   -0.1478   -1.6816   -0.7313 C   0  0  0  0  0  0  0  0  0  0  0  0
   -1.4409   -1.9672   -0.3396 C   0  0  0  0  0  0  0  0  0  0  0  0
   -2.1467   -1.0792    0.4617 C   0  0  0  0  0  0  0  0  0  0  0  0
   -3.4403   -1.3337    0.8711 O   0  0  0  0  0  0  0  0  0  0  0  0
   -4.4940   -0.5063    0.5587 C   0  0  0  0  0  0  0  0  0  0  0  0
   -4.3751    0.6506   -0.1866 C   0  0  0  0  0  0  0  0  0  0  0  0
   -5.4612    1.4527   -0.4771 C   0  0  0  0  0  0  0  0  0  0  0  0
   -6.7313    1.1480   -0.0409 C   0  0  0  0  0  0  0  0  0  0  0  0
   -7.8121    1.9358   -0.3234 F   0  0  0  0  0  0  0  0  0  0  0  0
   -6.8475   -0.0073    0.7029 C   0  0  0  0  0  0  0  0  0  0  0  0
   -5.7659   -0.8179    0.9995 C   0  0  0  0  0  0  0  0  0  0  0  0
   -5.8996   -1.9596    1.7382 F   0  0  0  0  0  0  0  0  0  0  0  0
   -1.5722    0.1012    0.8806 C   0  0  0  0  0  0  0  0  0  0  0  0
   -2.2229    0.9088    1.6131 O   0  0  0  0  0  0  0  0  0  0  0  0
   -0.3158    0.3403    0.4784 N   0  0  0  0  0  0  0  0  0  0  0  0
    0.3069    1.5826    0.9116 C   0  0  0  0  0  0  0  0  0  0  0  0
    0.4040   -0.4937   -0.2984 C   0  0  0  0  0  0  0  0  0  0  0  0
    1.6642   -0.2313   -0.6891 N   0  0  0  0  0  0  0  0  0  0  0  0
  1  2  1  0
  2  3  1  0
  2  4  1  0
  5  4  1  6
  5  6  1  0
  6  7  1  0
  7  8  2  0
  7  9  1  0
  9 10  1  0
 10 11  1  0
  5 12  1  0
 12 13  2  0
 12 14  1  0
 14 15  1  0
 15 16  1  0
 16 17  1  1
 16 18  1  0
 20 19  1  6
 20 21  1  0
 21 22  1  0
 22 23  1  0
 23 24  2  0
 24 25  1  0
 25 26  2  0
 20 27  1  0
 27 28  1  0
 28 29  2  0
 29 30  1  0
 30 31  2  0
 31 32  1  0
 32 33  2  0
 33 34  1  0
 34 35  1  0
 35 36  2  0
 36 37  1  0
 37 38  2  0
 38 39  1  0
 38 40  1  0
 40 41  2  0
 41 42  1  0
 33 43  1  0
 43 44  2  0
 43 45  1  0
 45 46  1  0
 45 47  1  0
 47 48  2  0
 26 22  1  0
 48 28  1  0
 47 31  1  0
 41 35  1  0
M  END

