
     RDKit          3D

 52 54  0  0  0  0  0  0  0  0999 V2000
    4.9298   -4.3776   -0.1666 C   0  0  0  0  0  0  0  0  0  0  0  0
    5.1608   -2.5792    0.0551 S   0  0  0  0  0  0  0  0  0  0  0  0
    3.8200   -2.0100    1.1355 C   0  0  0  0  0  0  0  0  0  0  0  0
    3.8931   -0.5245    1.4018 C   0  0  0  0  0  0  0  0  0  0  0  0
    3.7981    0.2855    0.1323 C   0  0  0  0  0  0  0  0  0  0  0  0
    2.5534    0.0487   -0.5734 N   0  0  0  0  0  0  0  0  0  0  0  0
    1.3430    0.3510    0.1151 C   0  0  0  0  0  0  0  0  0  0  0  0
    1.2933    0.7843    1.2307 O   0  0  0  0  0  0  0  0  0  0  0  0
    0.0118    0.0514   -0.7590 C   0  0  2  0  0  0  0  0  0  0  0  0
    0.0517    1.4988   -1.5657 C   0  0  0  0  0  0  0  0  0  0  0  0
   -0.0366    2.5670   -0.5530 C   0  0  0  0  0  0  0  0  0  0  0  0
   -0.0164    3.9271   -1.0573 C   0  0  0  0  0  0  0  0  0  0  0  0
   -0.0969    4.9925   -0.1737 O   0  0  0  0  0  1  0  0  0  0  0  0
    0.0739    4.1500   -2.2952 O   0  0  0  0  0  0  0  0  0  0  0  0
   -1.0435    0.5051    0.3307 N   0  0  0  0  0  0  0  0  0  0  0  0
   -2.2834   -0.1494    0.1895 C   0  0  0  0  0  0  0  0  0  0  0  0
   -2.4436   -0.9870   -0.7306 O   0  0  0  0  0  0  0  0  0  0  0  0
   -3.4462    0.1032    1.0956 C   0  0  0  0  0  0  0  0  0  0  0  0
   -4.6262   -0.7336    0.7328 C   0  0  0  0  0  0  0  0  0  0  0  0
   -4.3569   -2.1811    0.8119 C   0  0  0  0  0  0  0  0  0  0  0  0
   -5.3441   -3.1041    0.4938 O   0  0  0  0  0  1  0  0  0  0  0  0
   -3.2352   -2.6182    1.1664 O   0  0  0  0  0  0  0  0  0  0  0  0
    4.2706   -1.8567   -1.8909 C   0  0  0  0  0  0  0  0  0  0  0  0
    4.7957   -0.3154   -1.5236 C   0  0  2  0  0  0  0  0  0  0  0  0
    6.1307   -0.9081   -0.6994 C   0  0  0  0  0  0  0  0  0  0  0  0
    6.7226    0.3599   -0.2968 N   0  0  0  0  0  0  0  0  0  0  0  0
    6.5208    1.0684    0.7982 N   0  0  0  0  0  0  0  0  0  0  0  0
    7.2955    2.1669    0.7191 C   0  0  0  0  0  0  0  0  0  0  0  0
    7.9575    2.0969   -0.4381 N   0  0  0  0  0  0  0  0  0  0  0  0
    7.6116    0.9872   -1.0716 N   0  0  0  0  0  0  0  0  0  0  0  0
    3.9240   -0.2493   -0.2047 N   0  0  0  0  0  0  0  0  0  0  0  0
    2.5182   -0.3950   -0.4441 C   0  0  0  0  0  0  0  0  0  0  0  0
    2.0471   -0.5657   -1.6675 N   0  0  0  0  0  0  0  0  0  0  0  0
    0.7595   -0.7030   -1.9237 C   0  0  0  0  0  0  0  0  0  0  0  0
   -0.1413   -0.6674   -0.8664 C   0  0  0  0  0  0  0  0  0  0  0  0
   -1.4700   -0.7959   -1.0096 C   0  0  0  0  0  0  0  0  0  0  0  0
   -2.3944   -0.7588    0.0790 C   0  0  0  0  0  0  0  0  0  0  0  0
   -3.6627   -0.9079   -0.2925 O   0  0  0  0  0  0  0  0  0  0  0  0
   -4.8373   -0.2687   -0.3055 C   0  0  0  0  0  0  0  0  0  0  0  0
   -5.3857    0.0520   -1.5900 C   0  0  0  0  0  0  0  0  0  0  0  0
   -6.5649    0.6958   -1.7579 C   0  0  0  0  0  0  0  0  0  0  0  0
   -7.3285    1.0918   -0.6862 C   0  0  0  0  0  0  0  0  0  0  0  0
   -8.5112    1.7407   -0.8760 F   0  0  0  0  0  0  0  0  0  0  0  0
   -6.8384    0.8025    0.5573 C   0  0  0  0  0  0  0  0  0  0  0  0
   -5.6166    0.1346    0.7394 C   0  0  0  0  0  0  0  0  0  0  0  0
   -5.2165   -0.1426    2.0097 F   0  0  0  0  0  0  0  0  0  0  0  0
   -1.8035   -0.5806    1.2855 C   0  0  0  0  0  0  0  0  0  0  0  0
   -2.4763   -0.5310    2.3185 O   0  0  0  0  0  0  0  0  0  0  0  0
   -0.4640   -0.4484    1.4507 N   0  0  0  0  0  0  0  0  0  0  0  0
    0.0918   -0.2599    2.7761 C   0  0  0  0  0  0  0  0  0  0  0  0
    0.3750   -0.4883    0.3996 C   0  0  0  0  0  0  0  0  0  0  0  0
    1.6909   -0.3542    0.6023 N   0  0  0  0  0  0  0  0  0  0  0  0
  1  2  1  0
  2  3  1  0
  3  4  1  0
  4  5  1  0
  5  6  1  0
  6  7  1  0
  7  8  2  0
  7  9  1  0
  9 10  1  6
 10 11  1  0
 11 12  1  0
 12 13  1  0
 12 14  2  0
  9 15  1  0
 15 16  1  0
 16 17  2  0
 16 18  1  0
 18 19  1  0
 19 20  1  0
 20 21  1  0
 20 22  2  0
 24 23  1  6
 24 25  1  0
 25 26  1  0
 26 27  1  0
 27 28  2  0
 28 29  1  0
 29 30  2  0
 24 31  1  0
 31 32  1  0
 32 33  2  0
 33 34  1  0
 34 35  2  0
 35 36  1  0
 36 37  2  0
 37 38  1  0
 38 39  1  0
 39 40  2  0
 40 41  1  0
 41 42  2  0
 42 43  1  0
 42 44  1  0
 44 45  2  0
 45 46  1  0
 37 47  1  0
 47 48  2  0
 47 49  1  0
 49 50  1  0
 49 51  1  0
 51 52  2  0
 30 26  1  0
 52 32  1  0
 51 35  1  0
 45 39  1  0
M  RAD  2  13   2  21   2
M  END

