
     RDKit          3D

 52 56  0  0  0  0  0  0  0  0999 V2000
    4.4866    1.7667    0.0354 C   0  0  0  0  0  0  0  0  0  0  0  0
    5.1861    0.5217    0.8770 C   0  0  2  0  0  0  0  0  0  0  0  0
    6.2690    0.1451   -0.3068 C   0  0  0  0  0  0  0  0  0  0  0  0
    5.5605   -0.2007   -1.4801 N   0  0  0  0  0  0  0  0  0  0  0  0
    5.1025   -1.3550   -1.9296 N   0  0  0  0  0  0  0  0  0  0  0  0
    4.4930   -1.1541   -3.1044 C   0  0  0  0  0  0  0  0  0  0  0  0
    4.5747    0.1599   -3.3921 N   0  0  0  0  0  0  0  0  0  0  0  0
    5.2177    0.7100   -2.4057 N   0  0  0  0  0  0  0  0  0  0  0  0
    4.1096   -0.5360    0.4112 N   0  0  0  0  0  0  0  0  0  0  0  0
    2.8014   -0.1596    0.8216 C   0  0  0  0  0  0  0  0  0  0  0  0
    2.4784    0.9276    1.5071 N   0  0  0  0  0  0  0  0  0  0  0  0
    1.2426    1.2620    1.8822 C   0  0  0  0  0  0  0  0  0  0  0  0
    0.2112    0.4076    1.5294 C   0  0  0  0  0  0  0  0  0  0  0  0
   -1.0666    0.7154    1.8950 C   0  0  0  0  0  0  0  0  0  0  0  0
   -2.0961   -0.1361    1.5436 C   0  0  0  0  0  0  0  0  0  0  0  0
   -3.3827    0.1663    1.9072 O   0  0  0  0  0  0  0  0  0  0  0  0
   -4.3281    0.3327    0.9050 C   0  0  0  0  0  0  0  0  0  0  0  0
   -5.4415   -0.4873    0.8680 C   0  0  0  0  0  0  0  0  0  0  0  0
   -6.4145   -0.3708   -0.1017 C   0  0  0  0  0  0  0  0  0  0  0  0
   -6.2925    0.5976   -1.0861 C   0  0  0  0  0  0  0  0  0  0  0  0
   -7.2545    0.6884   -2.0174 F   0  0  0  0  0  0  0  0  0  0  0  0
   -5.1916    1.4263   -1.0696 C   0  0  0  0  0  0  0  0  0  0  0  0
   -4.2239    1.2872   -0.0790 C   0  0  0  0  0  0  0  0  0  0  0  0
   -3.1352    2.0983   -0.0532 F   0  0  0  0  0  0  0  0  0  0  0  0
   -1.7813   -1.2720    0.8307 C   0  0  0  0  0  0  0  0  0  0  0  0
   -2.7121   -2.0507    0.5077 O   0  0  0  0  0  0  0  0  0  0  0  0
   -0.5127   -1.5582    0.4791 N   0  0  0  0  0  0  0  0  0  0  0  0
   -0.1902   -2.7572   -0.2720 C   0  0  0  0  0  0  0  0  0  0  0  0
    0.5059   -0.7347    0.8156 C   0  0  0  0  0  0  0  0  0  0  0  0
    1.7845   -0.9876    0.4821 N   0  0  0  0  0  0  0  0  0  0  0  0
   -0.3259   -3.4272   -1.1858 O   0  0  0  0  0  1  0  0  0  0  0  0
   -1.4181   -2.7344   -1.6271 C   0  0  0  0  0  0  0  0  0  0  0  0
   -1.7367   -2.7278   -2.8176 O   0  0  0  0  0  0  0  0  0  0  0  0
   -2.2108   -1.9980   -0.6732 C   0  0  0  0  0  0  0  0  0  0  0  0
   -1.6383   -0.4487   -0.6356 C   0  0  2  0  0  0  0  0  0  0  0  0
   -0.2007   -0.8599   -0.1872 N   0  0  0  0  0  0  0  0  0  0  0  0
    0.7774    0.1568   -0.3898 C   0  0  0  0  0  0  0  0  0  0  0  0
    0.4252    1.2332   -0.8842 O   0  0  0  0  0  0  0  0  0  0  0  0
    2.2211   -0.0549   -0.0167 C   0  0  0  0  0  0  0  0  0  0  0  0
    2.9729    1.1984   -0.3768 C   0  0  0  0  0  0  0  0  0  0  0  0
    4.4166    1.0872   -0.0461 C   0  0  0  0  0  0  0  0  0  0  0  0
    5.0063    1.4456    1.1480 C   0  0  0  0  0  0  0  0  0  0  0  0
    6.3199    1.2107    1.0958 N   0  0  0  0  0  0  0  0  0  0  0  0
    6.5793    0.7039   -0.1232 C   0  0  0  0  0  0  0  0  0  0  0  0
    5.4453    0.6355   -0.7914 N   0  0  0  0  0  0  0  0  0  0  0  0
   -2.2578   -0.1489    0.7687 C   0  0  0  0  0  0  0  0  0  0  0  0
   -1.6704   -0.2615    1.8200 O   0  0  0  0  0  0  0  0  0  0  0  0
   -3.5873    0.2768    0.7104 N   0  0  0  0  0  0  0  0  0  0  0  0
   -4.3800    0.4459   -0.5006 C   0  0  0  0  0  0  0  0  0  0  0  0
   -4.9257    1.8566   -0.2334 C   0  0  0  0  0  0  0  0  0  0  0  0
   -5.3182    1.7624    1.2213 C   0  0  0  0  0  0  0  0  0  0  0  0
   -4.4941    0.6484    1.8111 C   0  0  0  0  0  0  0  0  0  0  0  0
  2  1  1  6
  2  3  1  0
  3  4  1  0
  4  5  1  0
  5  6  2  0
  6  7  1  0
  7  8  2  0
  2  9  1  0
  9 10  1  0
 10 11  2  0
 11 12  1  0
 12 13  2  0
 13 14  1  0
 14 15  2  0
 15 16  1  0
 16 17  1  0
 17 18  2  0
 18 19  1  0
 19 20  2  0
 20 21  1  0
 20 22  1  0
 22 23  2  0
 23 24  1  0
 15 25  1  0
 25 26  2  0
 25 27  1  0
 27 28  1  0
 27 29  1  0
 29 30  2  0
 31 32  1  0
 32 33  2  0
 32 34  1  0
 35 34  1  1
 35 36  1  0
 36 37  1  0
 37 38  2  0
 37 39  1  0
 39 40  1  0
 40 41  1  0
 41 42  2  0
 42 43  1  0
 43 44  1  0
 44 45  2  0
 35 46  1  0
 46 47  2  0
 46 48  1  0
 48 49  1  0
 49 50  1  0
 50 51  1  0
 51 52  1  0
  8  4  1  0
 30 10  1  0
 45 41  1  0
 52 48  1  0
 29 13  1  0
 23 17  1  0
M  RAD  1  31   2
M  END

