
     RDKit          3D

 55 59  0  0  0  0  0  0  0  0999 V2000
   -2.8630    4.6480    1.1279 C   0  0  0  0  0  0  0  0  0  0  0  0
   -2.8284    3.1705    1.5047 C   0  0  0  0  0  0  0  0  0  0  0  0
   -4.0599    2.5852    0.6461 C   0  0  2  0  0  0  0  0  0  0  0  0
   -3.8996    1.0689    1.1333 C   0  0  0  0  0  0  0  0  0  0  0  0
   -3.2567    2.4376   -0.7236 C   0  0  0  0  0  0  0  0  0  0  0  0
   -2.1054    1.5557   -0.5713 C   0  0  0  0  0  0  0  0  0  0  0  0
   -1.8137    1.0584    0.5550 O   0  0  0  0  0  0  0  0  0  0  0  0
   -1.2380    1.1805   -1.6061 N   0  0  0  0  0  0  0  0  0  0  0  0
   -0.0543    0.2403   -1.3421 C   0  0  1  0  0  0  0  0  0  0  0  0
    0.2711    0.7508    0.1632 C   0  0  0  0  0  0  0  0  0  0  0  0
    1.4099   -0.0390    0.6307 C   0  0  0  0  0  0  0  0  0  0  0  0
    1.3778   -1.0861    1.5059 C   0  0  0  0  0  0  0  0  0  0  0  0
    2.6169   -1.5687    1.7003 N   0  0  0  0  0  0  0  0  0  0  0  0
    3.4446   -0.8266    0.9459 C   0  0  0  0  0  0  0  0  0  0  0  0
    4.8166   -0.8672    0.7516 C   0  0  0  0  0  0  0  0  0  0  0  0
    5.4277    0.0273   -0.0925 C   0  0  0  0  0  0  0  0  0  0  0  0
    4.6850    0.9945   -0.7722 C   0  0  0  0  0  0  0  0  0  0  0  0
    3.3280    1.0322   -0.5780 C   0  0  0  0  0  0  0  0  0  0  0  0
    2.7166    0.1429    0.2618 C   0  0  0  0  0  0  0  0  0  0  0  0
   -0.8939   -1.0240   -0.9463 C   0  0  0  0  0  0  0  0  0  0  0  0
   -2.0964   -1.0970   -0.9079 O   0  0  0  0  0  0  0  0  0  0  0  0
   -0.1242   -2.1603   -0.6115 N   0  0  0  0  0  0  0  0  0  0  0  0
   -0.8097   -3.4041   -0.2250 C   0  0  0  0  0  0  0  0  0  0  0  0
   -1.6805   -3.8308   -1.4000 C   0  0  0  0  0  0  0  0  0  0  0  0
   -2.3704   -4.9887   -1.1499 O   0  0  0  0  0  0  0  0  0  0  0  0
   -4.0142   -3.7861    1.2076 C   0  0  0  0  0  0  0  0  0  0  0  0
   -4.8927   -2.5559    0.5282 C   0  0  2  0  0  0  0  0  0  0  0  0
   -4.0485   -2.5800   -0.8891 C   0  0  0  0  0  0  0  0  0  0  0  0
   -4.6626   -1.5341   -1.6962 N   0  0  0  0  0  0  0  0  0  0  0  0
   -5.6605   -1.5920   -2.5348 N   0  0  0  0  0  0  0  0  0  0  0  0
   -5.8505   -0.3579   -3.0294 C   0  0  0  0  0  0  0  0  0  0  0  0
   -4.9486    0.4695   -2.4799 N   0  0  0  0  0  0  0  0  0  0  0  0
   -4.2401   -0.2934   -1.6681 N   0  0  0  0  0  0  0  0  0  0  0  0
   -4.0417   -1.4177    1.1962 N   0  0  0  0  0  0  0  0  0  0  0  0
   -2.6608   -1.3998    0.9562 C   0  0  0  0  0  0  0  0  0  0  0  0
   -2.0292   -2.3082    0.1838 N   0  0  0  0  0  0  0  0  0  0  0  0
   -0.7027   -2.2827   -0.0408 C   0  0  0  0  0  0  0  0  0  0  0  0
    0.0842   -1.2975    0.5273 C   0  0  0  0  0  0  0  0  0  0  0  0
    1.4358   -1.2134    0.3405 C   0  0  0  0  0  0  0  0  0  0  0  0
    2.1331   -0.1946    0.9493 C   0  0  0  0  0  0  0  0  0  0  0  0
    3.5082   -0.0363    0.8119 O   0  0  0  0  0  0  0  0  0  0  0  0
    4.0645    1.1199    0.2661 C   0  0  0  0  0  0  0  0  0  0  0  0
    3.2901    2.1742   -0.1697 C   0  0  0  0  0  0  0  0  0  0  0  0
    3.8456    3.3161   -0.7090 C   0  0  0  0  0  0  0  0  0  0  0  0
    5.2106    3.4621   -0.8404 C   0  0  0  0  0  0  0  0  0  0  0  0
    5.7719    4.5830   -1.3705 F   0  0  0  0  0  0  0  0  0  0  0  0
    5.9943    2.4123   -0.4070 C   0  0  0  0  0  0  0  0  0  0  0  0
    5.4275    1.2757    0.1304 C   0  0  0  0  0  0  0  0  0  0  0  0
    6.2071    0.2286    0.5628 F   0  0  0  0  0  0  0  0  0  0  0  0
    1.4834    0.7319    1.7382 C   0  0  0  0  0  0  0  0  0  0  0  0
    2.1239    1.6741    2.3020 O   0  0  0  0  0  0  0  0  0  0  0  0
    0.1548    0.6200    1.9007 N   0  0  0  0  0  0  0  0  0  0  0  0
   -0.5344    1.5968    2.7332 C   0  0  0  0  0  0  0  0  0  0  0  0
   -0.5529   -0.3682    1.3159 C   0  0  0  0  0  0  0  0  0  0  0  0
   -1.8957   -0.4464    1.5053 N   0  0  0  0  0  0  0  0  0  0  0  0
  1  2  1  0
  2  3  1  0
  3  4  1  1
  3  5  1  0
  5  6  1  0
  6  7  2  0
  6  8  1  0
  8  9  1  0
  9 10  1  1
 10 11  1  0
 11 12  2  0
 12 13  1  0
 13 14  1  0
 14 15  2  0
 15 16  1  0
 16 17  2  0
 17 18  1  0
 18 19  2  0
  9 20  1  0
 20 21  2  0
 20 22  1  0
 22 23  1  0
 23 24  1  0
 24 25  1  0
 27 26  1  1
 27 28  1  0
 28 29  1  0
 29 30  1  0
 30 31  2  0
 31 32  1  0
 32 33  2  0
 27 34  1  0
 34 35  1  0
 35 36  2  0
 36 37  1  0
 37 38  2  0
 38 39  1  0
 39 40  2  0
 40 41  1  0
 41 42  1  0
 42 43  2  0
 43 44  1  0
 44 45  2  0
 45 46  1  0
 45 47  1  0
 47 48  2  0
 48 49  1  0
 40 50  1  0
 50 51  2  0
 50 52  1  0
 52 53  1  0
 52 54  1  0
 54 55  2  0
 19 11  1  0
 33 29  1  0
 55 35  1  0
 19 14  1  0
 54 38  1  0
 48 42  1  0
M  END

