
     RDKit          3D

 56 59  0  0  0  0  0  0  0  0999 V2000
    3.9903   -2.1288   -1.5286 C   0  0  0  0  0  0  0  0  0  0  0  0
    4.8126   -0.7245   -1.1857 C   0  0  2  0  0  0  0  0  0  0  0  0
    5.8090   -1.4947   -0.0911 C   0  0  0  0  0  0  0  0  0  0  0  0
    6.6765   -0.4538    0.3917 N   0  0  0  0  0  0  0  0  0  0  0  0
    6.4793    0.3327    1.4236 N   0  0  0  0  0  0  0  0  0  0  0  0
    7.5288    1.1488    1.5132 C   0  0  0  0  0  0  0  0  0  0  0  0
    8.3820    0.8549    0.5177 N   0  0  0  0  0  0  0  0  0  0  0  0
    7.8395   -0.1292   -0.1559 N   0  0  0  0  0  0  0  0  0  0  0  0
    3.7777   -0.3030   -0.0571 N   0  0  0  0  0  0  0  0  0  0  0  0
    2.4486   -0.1525   -0.5680 C   0  0  0  0  0  0  0  0  0  0  0  0
    2.1008   -0.3391   -1.8349 N   0  0  0  0  0  0  0  0  0  0  0  0
    0.8115   -0.1663   -2.1963 C   0  0  0  0  0  0  0  0  0  0  0  0
   -0.1669    0.2002   -1.2896 C   0  0  0  0  0  0  0  0  0  0  0  0
   -1.4766    0.3872   -1.5991 C   0  0  0  0  0  0  0  0  0  0  0  0
   -2.3902    0.7571   -0.6137 C   0  0  0  0  0  0  0  0  0  0  0  0
   -3.7335    0.9547   -0.9019 O   0  0  0  0  0  0  0  0  0  0  0  0
   -4.7594    0.2340   -0.3198 C   0  0  0  0  0  0  0  0  0  0  0  0
   -4.5182   -0.7489    0.6039 C   0  0  0  0  0  0  0  0  0  0  0  0
   -5.5620   -1.4433    1.1604 C   0  0  0  0  0  0  0  0  0  0  0  0
   -6.8663   -1.1776    0.8126 C   0  0  0  0  0  0  0  0  0  0  0  0
   -7.9055   -1.8783    1.3752 F   0  0  0  0  0  0  0  0  0  0  0  0
   -7.1003   -0.1868   -0.1178 C   0  0  0  0  0  0  0  0  0  0  0  0
   -6.0454    0.5149   -0.6802 C   0  0  0  0  0  0  0  0  0  0  0  0
   -6.3256    1.4697   -1.5811 F   0  0  0  0  0  0  0  0  0  0  0  0
   -1.9593    0.9365    0.6966 C   0  0  0  0  0  0  0  0  0  0  0  0
   -2.7396    1.2701    1.6266 O   0  0  0  0  0  0  0  0  0  0  0  0
   -0.6646    0.7478    0.9829 N   0  0  0  0  0  0  0  0  0  0  0  0
   -0.1928    0.9330    2.3616 C   0  0  0  0  0  0  0  0  0  0  0  0
    0.2279    0.3867    0.0218 C   0  0  0  0  0  0  0  0  0  0  0  0
    1.5218    0.1984    0.3098 N   0  0  0  0  0  0  0  0  0  0  0  0
   -6.9094   -1.5082    0.5874 O   0  0  0  0  0  1  0  0  0  0  0  0
   -6.2472   -0.6176    1.4344 C   0  0  0  0  0  0  0  0  0  0  0  0
   -5.7850   -1.0484    2.5136 O   0  0  0  0  0  0  0  0  0  0  0  0
   -6.0966    0.8062    1.0592 C   0  0  0  0  0  0  0  0  0  0  0  0
   -5.3348    1.5057    2.1555 C   0  0  0  0  0  0  0  0  0  0  0  0
   -3.9898    0.8471    2.2937 C   0  0  0  0  0  0  0  0  0  0  0  0
   -3.3061    0.9848    0.9952 N   0  0  0  0  0  0  0  0  0  0  0  0
   -2.0074    0.4123    0.9471 C   0  0  0  0  0  0  0  0  0  0  0  0
   -1.4766   -0.1370    1.8425 O   0  0  0  0  0  0  0  0  0  0  0  0
   -1.3256    0.5989   -0.4928 C   0  0  2  0  0  0  0  0  0  0  0  0
   -1.8919   -0.6768   -1.2355 C   0  0  0  0  0  0  0  0  0  0  0  0
   -2.8551   -1.3316   -1.6421 C   0  0  0  0  0  0  0  0  0  0  0  0
   -3.2224   -1.4195   -3.0092 O   0  0  0  0  0  1  0  0  0  0  0  0
   -3.6257   -2.0013   -0.8737 O   0  0  0  0  0  0  0  0  0  0  0  0
    0.0239   -0.1379   -0.1315 N   0  0  0  0  0  0  0  0  0  0  0  0
    1.1350    0.6149   -0.6533 C   0  0  0  0  0  0  0  0  0  0  0  0
    1.0025    1.6993   -1.3010 O   0  0  0  0  0  0  0  0  0  0  0  0
    2.5248    0.1374   -0.4466 C   0  0  0  0  0  0  0  0  0  0  0  0
    3.5352    1.0431   -1.0734 C   0  0  0  0  0  0  0  0  0  0  0  0
    4.9068    0.5038   -0.8174 C   0  0  0  0  0  0  0  0  0  0  0  0
    5.5660    0.9279    0.3145 C   0  0  0  0  0  0  0  0  0  0  0  0
    6.8477    0.4707    0.6278 C   0  0  0  0  0  0  0  0  0  0  0  0
    7.4562   -0.4221   -0.2175 C   0  0  0  0  0  0  0  0  0  0  0  0
    8.7214   -0.8590    0.1140 O   0  0  0  0  0  0  0  0  0  0  0  0
    6.8127   -0.8580   -1.3549 C   0  0  0  0  0  0  0  0  0  0  0  0
    5.5413   -0.3839   -1.6360 C   0  0  0  0  0  0  0  0  0  0  0  0
  2  1  1  6
  2  3  1  0
  3  4  1  0
  4  5  1  0
  5  6  2  0
  6  7  1  0
  7  8  2  0
  2  9  1  0
  9 10  1  0
 10 11  2  0
 11 12  1  0
 12 13  2  0
 13 14  1  0
 14 15  2  0
 15 16  1  0
 16 17  1  0
 17 18  2  0
 18 19  1  0
 19 20  2  0
 20 21  1  0
 20 22  1  0
 22 23  2  0
 23 24  1  0
 15 25  1  0
 25 26  2  0
 25 27  1  0
 27 28  1  0
 27 29  1  0
 29 30  2  0
 31 32  1  0
 32 33  2  0
 32 34  1  0
 34 35  1  0
 35 36  1  0
 36 37  1  0
 37 38  1  0
 38 39  2  0
 38 40  1  0
 40 41  1  6
 41 42  1  0
 42 43  1  0
 42 44  2  0
 40 45  1  0
 45 46  1  0
 46 47  2  0
 46 48  1  0
 48 49  1  0
 49 50  1  0
 50 51  2  0
 51 52  1  0
 52 53  2  0
 53 54  1  0
 53 55  1  0
 55 56  2  0
  8  4  1  0
 30 10  1  0
 56 50  1  0
 29 13  1  0
 23 17  1  0
M  RAD  2  31   2  43   2
M  END

