
     RDKit          3D

 48 50  0  0  0  0  0  0  0  0999 V2000
    3.3305   -2.1772    0.2014 C   0  0  0  0  0  0  0  0  0  0  0  0
    4.3401   -1.0063   -0.4569 C   0  0  2  0  0  0  0  0  0  0  0  0
    5.6185   -1.5204    0.4946 C   0  0  0  0  0  0  0  0  0  0  0  0
    6.7009   -0.6351    0.1197 N   0  0  0  0  0  0  0  0  0  0  0  0
    6.9185    0.5125    0.7396 N   0  0  0  0  0  0  0  0  0  0  0  0
    7.9770    1.0808    0.1597 C   0  0  0  0  0  0  0  0  0  0  0  0
    8.3859    0.2557   -0.8134 N   0  0  0  0  0  0  0  0  0  0  0  0
    7.5916   -0.7845   -0.8182 N   0  0  0  0  0  0  0  0  0  0  0  0
    3.9060    0.0875    0.6072 N   0  0  0  0  0  0  0  0  0  0  0  0
    2.5157    0.3917    0.5933 C   0  0  0  0  0  0  0  0  0  0  0  0
    2.1160    1.3148    1.4832 N   0  0  0  0  0  0  0  0  0  0  0  0
    0.8402    1.7206    1.6059 C   0  0  0  0  0  0  0  0  0  0  0  0
   -0.1172    1.1675    0.7805 C   0  0  0  0  0  0  0  0  0  0  0  0
   -1.4504    1.5501    0.8644 C   0  0  0  0  0  0  0  0  0  0  0  0
   -2.3875    0.9809    0.0267 C   0  0  0  0  0  0  0  0  0  0  0  0
   -3.7367    1.3365    0.0778 O   0  0  0  0  0  0  0  0  0  0  0  0
   -4.7418    0.4466    0.3503 C   0  0  0  0  0  0  0  0  0  0  0  0
   -4.5017   -0.8770    0.5972 C   0  0  0  0  0  0  0  0  0  0  0  0
   -5.5463   -1.7170    0.8632 C   0  0  0  0  0  0  0  0  0  0  0  0
   -6.8277   -1.2535    0.8862 C   0  0  0  0  0  0  0  0  0  0  0  0
   -7.8631   -2.0683    1.1463 F   0  0  0  0  0  0  0  0  0  0  0  0
   -7.1093    0.0873    0.6396 C   0  0  0  0  0  0  0  0  0  0  0  0
   -6.0341    0.9043    0.3755 C   0  0  0  0  0  0  0  0  0  0  0  0
   -6.2818    2.2285    0.1292 F   0  0  0  0  0  0  0  0  0  0  0  0
   -1.9270    0.0352   -0.8726 C   0  0  0  0  0  0  0  0  0  0  0  0
   -2.8057   -0.4743   -1.6321 O   0  0  0  0  0  0  0  0  0  0  0  0
   -0.6279   -0.3193   -0.9347 N   0  0  0  0  0  0  0  0  0  0  0  0
   -0.2089   -1.3285   -1.9120 C   0  0  0  0  0  0  0  0  0  0  0  0
    0.3113    0.2159   -0.1329 C   0  0  0  0  0  0  0  0  0  0  0  0
    1.6151   -0.1549   -0.2114 N   0  0  0  0  0  0  0  0  0  0  0  0
   -4.4893    1.3996   -0.0170 N   0  0  0  0  0  0  0  0  0  0  0  0
   -4.3074    0.0216   -0.2623 C   0  0  0  0  0  0  0  0  0  0  0  0
   -4.8718   -0.8727    0.4734 N   0  0  0  0  0  4  0  0  0  0  0  0
   -3.4868   -0.4279   -1.3461 N   0  0  0  0  0  0  0  0  0  0  0  0
   -3.3333   -1.8612   -1.5584 C   0  0  0  0  0  0  0  0  0  0  0  0
   -2.6986   -2.4355   -0.3179 C   0  0  0  0  0  0  0  0  0  0  0  0
   -1.3553   -1.7868   -0.1343 C   0  0  0  0  0  0  0  0  0  0  0  0
   -1.4398   -0.3080    0.0368 C   0  0  0  0  0  0  0  0  0  0  0  0
   -0.1236    0.3045    0.1899 N   0  0  0  0  0  0  0  0  0  0  0  0
    0.7499   -0.0442    1.2556 C   0  0  0  0  0  0  0  0  0  0  0  0
    0.4501   -0.8559    2.0751 O   0  0  0  0  0  0  0  0  0  0  0  0
    2.1607    0.7325    1.2691 C   0  0  1  0  0  0  0  0  0  0  0  0
    2.7685   -0.0042    2.5374 N   0  0  0  0  0  4  0  0  0  0  0  0
    2.8725   -0.3058    0.1873 C   0  0  0  0  0  0  0  0  0  0  0  0
    4.2688    0.2524    0.0331 C   0  0  0  0  0  0  0  0  0  0  0  0
    4.2539    1.6441   -0.4648 C   0  0  0  0  0  0  0  0  0  0  0  0
    4.9546    1.9883   -1.6337 O   0  0  0  0  0  1  0  0  0  0  0  0
    3.6268    2.5593    0.1230 O   0  0  0  0  0  0  0  0  0  0  0  0
  2  1  1  1
  2  3  1  0
  3  4  1  0
  4  5  1  0
  5  6  2  0
  6  7  1  0
  7  8  2  0
  2  9  1  0
  9 10  1  0
 10 11  2  0
 11 12  1  0
 12 13  2  0
 13 14  1  0
 14 15  2  0
 15 16  1  0
 16 17  1  0
 17 18  2  0
 18 19  1  0
 19 20  2  0
 20 21  1  0
 20 22  1  0
 22 23  2  0
 23 24  1  0
 15 25  1  0
 25 26  2  0
 25 27  1  0
 27 28  1  0
 27 29  1  0
 29 30  2  0
 31 32  1  0
 32 33  2  0
 32 34  1  0
 34 35  1  0
 35 36  1  0
 36 37  1  0
 37 38  1  0
 38 39  1  0
 39 40  1  0
 40 41  2  0
 40 42  1  0
 42 43  1  1
 42 44  1  0
 44 45  1  0
 45 46  1  0
 46 47  1  0
 46 48  2  0
  8  4  1  0
 30 10  1  0
 29 13  1  0
 23 17  1  0
M  CHG  2  33   1  43   1
M  RAD  1  47   2
M  END

