
     RDKit          3D

 50 52  0  0  0  0  0  0  0  0999 V2000
   -5.7593    2.8145   -1.2428 C   0  0  0  0  0  0  0  0  0  0  0  0
   -4.5947    2.1481   -0.5022 C   0  0  0  0  0  0  0  0  0  0  0  0
   -3.6035    1.7522   -1.6142 C   0  0  0  0  0  0  0  0  0  0  0  0
   -5.1686    0.8885    0.1557 C   0  0  0  0  0  0  0  0  0  0  0  0
   -4.0230    0.2100    0.9208 C   0  0  0  0  0  0  0  0  0  0  0  0
   -3.0083   -0.0849   -0.0623 N   0  0  0  0  0  0  0  0  0  0  0  0
   -1.8214   -0.6958    0.4520 C   0  0  0  0  0  0  0  0  0  0  0  0
   -1.5922   -0.9885    1.5958 O   0  0  0  0  0  0  0  0  0  0  0  0
   -0.7327   -0.9753   -0.7171 C   0  0  2  0  0  0  0  0  0  0  0  0
   -0.7889   -2.6330   -0.5590 C   0  0  0  0  0  0  0  0  0  0  0  0
   -1.8370   -3.0410   -1.3426 O   0  0  0  0  0  0  0  0  0  0  0  0
    0.5239   -0.8600    0.2565 N   0  0  0  0  0  0  0  0  0  0  0  0
    1.7181   -0.6932   -0.4970 C   0  0  0  0  0  0  0  0  0  0  0  0
    1.7407   -0.6545   -1.7507 O   0  0  0  0  0  0  0  0  0  0  0  0
    3.0210   -0.5525    0.1848 C   0  0  0  0  0  0  0  0  0  0  0  0
    4.1722   -0.4335   -0.7734 C   0  0  0  0  0  0  0  0  0  0  0  0
    5.4863   -0.2573   -0.0355 C   0  0  0  0  0  0  0  0  0  0  0  0
    5.4091    0.9917    0.7719 C   0  0  0  0  0  0  0  0  0  0  0  0
    6.4955    1.3425    1.6150 N   0  0  0  0  0  0  0  0  0  0  0  0
    4.3628    1.7218    0.6861 O   0  0  0  0  0  0  0  0  0  0  0  0
   -4.3201    0.5138   -1.9596 C   0  0  0  0  0  0  0  0  0  0  0  0
   -4.8715   -1.0277   -1.7306 C   0  0  2  0  0  0  0  0  0  0  0  0
   -4.6809   -0.9745   -0.1010 C   0  0  0  0  0  0  0  0  0  0  0  0
   -5.5362    0.1243    0.3361 N   0  0  0  0  0  0  0  0  0  0  0  0
   -6.7986   -0.0618    0.6685 N   0  0  0  0  0  0  0  0  0  0  0  0
   -7.3328    1.1170    1.0267 C   0  0  0  0  0  0  0  0  0  0  0  0
   -6.3535    2.0304    0.9018 N   0  0  0  0  0  0  0  0  0  0  0  0
   -5.2786    1.3872    0.4801 N   0  0  0  0  0  0  0  0  0  0  0  0
   -3.4930   -1.7016   -2.0132 N   0  0  0  0  0  0  0  0  0  0  0  0
   -2.3695   -1.2683   -1.2754 C   0  0  0  0  0  0  0  0  0  0  0  0
   -2.5514   -0.2910   -0.3721 N   0  0  0  0  0  0  0  0  0  0  0  0
   -1.5977    0.2355    0.4092 C   0  0  0  0  0  0  0  0  0  0  0  0
   -0.3234   -0.2878    0.2554 C   0  0  0  0  0  0  0  0  0  0  0  0
    0.7532    0.1520    0.9865 C   0  0  0  0  0  0  0  0  0  0  0  0
    2.0013   -0.3923    0.8048 C   0  0  0  0  0  0  0  0  0  0  0  0
    3.0720    0.0626    1.5490 O   0  0  0  0  0  0  0  0  0  0  0  0
    4.2126    0.6267    0.9874 C   0  0  0  0  0  0  0  0  0  0  0  0
    5.4359    0.0329    1.2096 C   0  0  0  0  0  0  0  0  0  0  0  0
    6.6162    0.5500    0.6742 C   0  0  0  0  0  0  0  0  0  0  0  0
    6.5739    1.6773   -0.0947 C   0  0  0  0  0  0  0  0  0  0  0  0
    7.7234    2.1738   -0.6112 F   0  0  0  0  0  0  0  0  0  0  0  0
    5.3415    2.2649   -0.3114 C   0  0  0  0  0  0  0  0  0  0  0  0
    4.1721    1.7647    0.2107 C   0  0  0  0  0  0  0  0  0  0  0  0
    2.9896    2.3821   -0.0340 F   0  0  0  0  0  0  0  0  0  0  0  0
    2.1670   -1.3921   -0.1250 C   0  0  0  0  0  0  0  0  0  0  0  0
    3.3131   -1.9271   -0.3263 O   0  0  0  0  0  0  0  0  0  0  0  0
    1.1227   -1.8287   -0.8440 N   0  0  0  0  0  0  0  0  0  0  0  0
    1.2856   -2.8878   -1.8325 C   0  0  0  0  0  0  0  0  0  0  0  0
   -0.1252   -1.2917   -0.6693 C   0  0  0  0  0  0  0  0  0  0  0  0
   -1.1476   -1.7629   -1.4159 N   0  0  0  0  0  0  0  0  0  0  0  0
  1  2  1  0
  2  3  1  0
  2  4  1  0
  4  5  1  0
  5  6  1  0
  6  7  1  0
  7  8  2  0
  7  9  1  0
  9 10  1  1
 10 11  1  0
  9 12  1  0
 12 13  1  0
 13 14  2  0
 13 15  1  0
 15 16  1  0
 16 17  1  0
 17 18  1  0
 18 19  1  0
 18 20  2  0
 22 21  1  6
 22 23  1  0
 23 24  1  0
 24 25  1  0
 25 26  2  0
 26 27  1  0
 27 28  2  0
 22 29  1  0
 29 30  1  0
 30 31  2  0
 31 32  1  0
 32 33  2  0
 33 34  1  0
 34 35  2  0
 35 36  1  0
 36 37  1  0
 37 38  2  0
 38 39  1  0
 39 40  2  0
 40 41  1  0
 40 42  1  0
 42 43  2  0
 43 44  1  0
 35 45  1  0
 45 46  2  0
 45 47  1  0
 47 48  1  0
 47 49  1  0
 49 50  2  0
 28 24  1  0
 50 30  1  0
 49 33  1  0
 43 37  1  0
M  END

