
     RDKit          3D

 52 54  0  0  0  0  0  0  0  0999 V2000
   -1.2111   -2.0122   -3.0481 C   0  0  0  0  0  0  0  0  0  0  0  0
   -0.9005   -0.6366   -2.5198 C   0  0  0  0  0  0  0  0  0  0  0  0
    0.1815   -0.7949   -1.3228 C   0  0  2  0  0  0  0  0  0  0  0  0
   -0.7055   -1.7267   -0.3611 C   0  0  0  0  0  0  0  0  0  0  0  0
   -0.1015    0.7280   -0.6390 C   0  0  2  0  0  0  0  0  0  0  0  0
    0.8920    0.6583    0.5364 N   0  0  0  0  0  0  0  0  0  0  0  0
    1.9931   -0.2186    0.4158 C   0  0  0  0  0  0  0  0  0  0  0  0
    2.1792   -0.9445   -0.6262 O   0  0  0  0  0  0  0  0  0  0  0  0
    3.0229   -0.3731    1.4754 C   0  0  0  0  0  0  0  0  0  0  0  0
    4.2599   -0.9416    0.9146 C   0  0  0  0  0  0  0  0  0  0  0  0
    5.1157   -0.2466    0.0096 C   0  0  0  0  0  0  0  0  0  0  0  0
    4.7466    0.3606   -1.2403 C   0  0  0  0  0  0  0  0  0  0  0  0
    3.8103    1.5192   -1.1905 C   0  0  0  0  0  0  0  0  0  0  0  0
    4.3111    2.6485   -0.4211 N   0  0  0  0  0  4  0  0  0  0  0  0
   -1.4857    0.4139    0.1276 C   0  0  0  0  0  0  0  0  0  0  0  0
   -1.4908    0.7836    1.3097 O   0  0  0  0  0  0  0  0  0  0  0  0
   -2.5088   -0.1966   -0.5028 N   0  0  0  0  0  0  0  0  0  0  0  0
   -3.7575   -0.5395    0.0041 C   0  0  0  0  0  0  0  0  0  0  0  0
   -4.6947    0.4435    0.5183 C   0  0  0  0  0  0  0  0  0  0  0  0
   -4.3582    1.2435    1.6953 C   0  0  0  0  0  0  0  0  0  0  0  0
   -4.1180    0.4681    2.9732 C   0  0  0  0  0  0  0  0  0  0  0  0
   -5.1800    2.4918    1.8916 C   0  0  0  0  0  0  0  0  0  0  0  0
   -4.6628    0.6154    0.7035 C   0  0  0  0  0  0  0  0  0  0  0  0
   -4.8911    0.1288   -0.8895 C   0  0  2  0  0  0  0  0  0  0  0  0
   -6.1010   -0.9493   -0.4416 C   0  0  0  0  0  0  0  0  0  0  0  0
   -7.0794   -0.0678    0.1684 N   0  0  0  0  0  0  0  0  0  0  0  0
   -7.0685    0.2252    1.4582 N   0  0  0  0  0  0  0  0  0  0  0  0
   -8.0944    1.0650    1.7353 C   0  0  0  0  0  0  0  0  0  0  0  0
   -8.7364    1.2804    0.5810 N   0  0  0  0  0  0  0  0  0  0  0  0
   -8.0883    0.5735   -0.3494 N   0  0  0  0  0  0  0  0  0  0  0  0
   -3.7507   -0.9661   -0.8055 N   0  0  0  0  0  0  0  0  0  0  0  0
   -2.4601   -0.4661   -0.4994 C   0  0  0  0  0  0  0  0  0  0  0  0
   -2.2097    0.8380   -0.2936 N   0  0  0  0  0  0  0  0  0  0  0  0
   -0.9648    1.2579   -0.0059 C   0  0  0  0  0  0  0  0  0  0  0  0
    0.1030    0.3884    0.0916 C   0  0  0  0  0  0  0  0  0  0  0  0
    1.3752    0.7795    0.3800 C   0  0  0  0  0  0  0  0  0  0  0  0
    2.4709   -0.1351    0.4767 C   0  0  0  0  0  0  0  0  0  0  0  0
    3.6367    0.3906    0.7621 O   0  0  0  0  0  0  0  0  0  0  0  0
    4.8859    0.6118    0.3537 C   0  0  0  0  0  0  0  0  0  0  0  0
    5.2583    1.9699    0.1666 C   0  0  0  0  0  0  0  0  0  0  0  0
    6.5109    2.3031   -0.2485 C   0  0  0  0  0  0  0  0  0  0  0  0
    7.4954    1.3796   -0.5146 C   0  0  0  0  0  0  0  0  0  0  0  0
    8.7346    1.7337   -0.9289 F   0  0  0  0  0  0  0  0  0  0  0  0
    7.1584    0.0629   -0.3399 C   0  0  0  0  0  0  0  0  0  0  0  0
    5.8646   -0.2956    0.0899 C   0  0  0  0  0  0  0  0  0  0  0  0
    5.6699   -1.6175    0.2469 F   0  0  0  0  0  0  0  0  0  0  0  0
    2.1254   -1.4379    0.2542 C   0  0  0  0  0  0  0  0  0  0  0  0
    2.9940   -2.3697    0.3093 O   0  0  0  0  0  0  0  0  0  0  0  0
    0.8427   -1.8197   -0.0356 N   0  0  0  0  0  0  0  0  0  0  0  0
    0.5732   -3.2188   -0.2560 C   0  0  0  0  0  0  0  0  0  0  0  0
   -0.1606   -0.9460   -0.1204 C   0  0  0  0  0  0  0  0  0  0  0  0
   -1.4313   -1.3143   -0.4067 N   0  0  0  0  0  0  0  0  0  0  0  0
  1  2  1  0
  2  3  1  0
  3  4  1  1
  3  5  1  0
  5  6  1  1
  6  7  1  0
  7  8  2  0
  7  9  1  0
  9 10  1  0
 10 11  1  0
 11 12  1  0
 12 13  1  0
 13 14  1  0
  5 15  1  0
 15 16  2  0
 15 17  1  0
 17 18  1  0
 18 19  1  0
 19 20  1  0
 20 21  1  0
 20 22  1  0
 24 23  1  1
 24 25  1  0
 25 26  1  0
 26 27  1  0
 27 28  2  0
 28 29  1  0
 29 30  2  0
 24 31  1  0
 31 32  1  0
 32 33  2  0
 33 34  1  0
 34 35  2  0
 35 36  1  0
 36 37  2  0
 37 38  1  0
 38 39  1  0
 39 40  2  0
 40 41  1  0
 41 42  2  0
 42 43  1  0
 42 44  1  0
 44 45  2  0
 45 46  1  0
 37 47  1  0
 47 48  2  0
 47 49  1  0
 49 50  1  0
 49 51  1  0
 51 52  2  0
 30 26  1  0
 52 32  1  0
 51 35  1  0
 45 39  1  0
M  CHG  1  14   1
M  END

