
     RDKit          3D

 54 56  0  0  0  0  0  0  0  0999 V2000
    6.6555    1.5488   -0.6356 C   0  0  0  0  0  0  0  0  0  0  0  0
    5.3775    2.2528   -0.8745 C   0  0  0  0  0  0  0  0  0  0  0  0
    5.3963    3.6719   -1.2406 C   0  0  0  0  0  0  0  0  0  0  0  0
    4.1781    1.7511   -0.1659 C   0  0  0  0  0  0  0  0  0  0  0  0
    3.9631    0.3049   -0.5848 C   0  0  0  0  0  0  0  0  0  0  0  0
    2.8362   -0.3252    0.0044 N   0  0  0  0  0  0  0  0  0  0  0  0
    1.4999    0.0760   -0.1454 C   0  0  0  0  0  0  0  0  0  0  0  0
    1.1940    1.0409   -0.8316 O   0  0  0  0  0  0  0  0  0  0  0  0
    0.3523   -0.7038    0.5569 C   0  0  2  0  0  0  0  0  0  0  0  0
    0.5883   -2.1136   -0.2445 C   0  0  0  0  0  0  0  0  0  0  0  0
   -0.4477   -3.0724    0.2842 C   0  0  0  0  0  0  0  0  0  0  0  0
   -1.8699   -2.5356    0.0354 C   0  0  0  0  0  0  0  0  0  0  0  0
   -2.7590   -3.5517    0.5929 N   0  0  0  0  0  0  0  0  0  0  0  0
   -2.7297   -4.8976    0.0973 C   0  0  0  0  0  0  0  0  0  0  0  0
   -3.6275   -5.8299    0.6893 N   0  0  0  0  0  0  0  0  0  0  0  0
   -1.9025   -5.1925   -0.8495 N   0  0  0  0  0  4  0  0  0  0  0  0
   -0.8193   -0.2420   -0.3205 N   0  0  0  0  0  0  0  0  0  0  0  0
   -1.6546    0.8037    0.1085 C   0  0  0  0  0  0  0  0  0  0  0  0
   -1.4412    1.3701    1.2007 O   0  0  0  0  0  0  0  0  0  0  0  0
   -2.7796    1.1739   -0.8106 C   0  0  0  0  0  0  0  0  0  0  0  0
   -3.5964    2.3200   -0.2796 C   0  0  0  0  0  0  0  0  0  0  0  0
   -2.7145    3.5632   -0.1078 C   0  0  0  0  0  0  0  0  0  0  0  0
   -3.5583    4.7143    0.4219 C   0  0  0  0  0  0  0  0  0  0  0  0
   -2.1411    3.8729   -1.4584 C   0  0  0  0  0  0  0  0  0  0  0  0
    4.5346   -0.0762    1.1596 C   0  0  0  0  0  0  0  0  0  0  0  0
    4.8148   -1.0865   -0.1165 C   0  0  2  0  0  0  0  0  0  0  0  0
    6.1307   -0.2375   -0.6307 C   0  0  0  0  0  0  0  0  0  0  0  0
    7.0673   -0.2616    0.4494 N   0  0  0  0  0  0  0  0  0  0  0  0
    7.0423    0.6900    1.3669 N   0  0  0  0  0  0  0  0  0  0  0  0
    8.0002    0.4746    2.2818 C   0  0  0  0  0  0  0  0  0  0  0  0
    8.6070   -0.6543    1.8739 N   0  0  0  0  0  0  0  0  0  0  0  0
    8.0322   -1.0706    0.7820 N   0  0  0  0  0  0  0  0  0  0  0  0
    3.8334   -0.3475   -1.0690 N   0  0  0  0  0  0  0  0  0  0  0  0
    2.4796   -0.2614   -0.7043 C   0  0  0  0  0  0  0  0  0  0  0  0
    2.1108   -0.8306    0.4610 N   0  0  0  0  0  0  0  0  0  0  0  0
    0.8263   -0.7892    0.8797 C   0  0  0  0  0  0  0  0  0  0  0  0
   -0.1577   -0.1593    0.1244 C   0  0  0  0  0  0  0  0  0  0  0  0
   -1.4566   -0.1094    0.5317 C   0  0  0  0  0  0  0  0  0  0  0  0
   -2.4527    0.5474   -0.2685 C   0  0  0  0  0  0  0  0  0  0  0  0
   -3.6788    0.5349    0.2248 O   0  0  0  0  0  0  0  0  0  0  0  0
   -4.9315    0.1390    0.0698 C   0  0  0  0  0  0  0  0  0  0  0  0
   -5.3798   -0.7613    1.0805 C   0  0  0  0  0  0  0  0  0  0  0  0
   -6.6387   -1.2838    1.1017 C   0  0  0  0  0  0  0  0  0  0  0  0
   -7.5355   -0.9344    0.1034 C   0  0  0  0  0  0  0  0  0  0  0  0
   -8.7547   -1.4546    0.1432 F   0  0  0  0  0  0  0  0  0  0  0  0
   -7.1070   -0.0707   -0.8660 C   0  0  0  0  0  0  0  0  0  0  0  0
   -5.8259    0.4657   -0.8936 C   0  0  0  0  0  0  0  0  0  0  0  0
   -5.5450    1.3340   -1.9141 F   0  0  0  0  0  0  0  0  0  0  0  0
   -2.0106    1.1056   -1.4398 C   0  0  0  0  0  0  0  0  0  0  0  0
   -2.7861    1.7128   -2.2287 O   0  0  0  0  0  0  0  0  0  0  0  0
   -0.7015    1.0087   -1.7674 N   0  0  0  0  0  0  0  0  0  0  0  0
   -0.2978    1.6206   -3.0220 C   0  0  0  0  0  0  0  0  0  0  0  0
    0.2440    0.4171   -1.0665 C   0  0  0  0  0  0  0  0  0  0  0  0
    1.5369    0.3386   -1.4215 N   0  0  0  0  0  0  0  0  0  0  0  0
  1  2  1  0
  2  3  1  0
  2  4  1  0
  4  5  1  0
  5  6  1  0
  6  7  1  0
  7  8  2  0
  7  9  1  0
  9 10  1  6
 10 11  1  0
 11 12  1  0
 12 13  1  0
 13 14  1  0
 14 15  1  0
 14 16  2  0
  9 17  1  0
 17 18  1  0
 18 19  2  0
 18 20  1  0
 20 21  1  0
 21 22  1  0
 22 23  1  0
 22 24  1  0
 26 25  1  1
 26 27  1  0
 27 28  1  0
 28 29  1  0
 29 30  2  0
 30 31  1  0
 31 32  2  0
 26 33  1  0
 33 34  1  0
 34 35  2  0
 35 36  1  0
 36 37  2  0
 37 38  1  0
 38 39  2  0
 39 40  1  0
 40 41  1  0
 41 42  2  0
 42 43  1  0
 43 44  2  0
 44 45  1  0
 44 46  1  0
 46 47  2  0
 47 48  1  0
 39 49  1  0
 49 50  2  0
 49 51  1  0
 51 52  1  0
 51 53  1  0
 53 54  2  0
 32 28  1  0
 54 34  1  0
 53 37  1  0
 47 41  1  0
M  CHG  1  16   1
M  END

