
     RDKit          3D

 46 48  0  0  0  0  0  0  0  0999 V2000
   -3.8188   -2.6210    0.4184 C   0  0  0  0  0  0  0  0  0  0  0  0
   -2.7933   -1.8227   -0.2846 C   0  0  0  0  0  0  0  0  0  0  0  0
   -1.9355   -2.4326   -0.9733 O   0  0  0  0  0  0  0  0  0  0  0  0
   -2.7566   -0.4695   -0.2055 N   0  0  0  0  0  0  0  0  0  0  0  0
   -1.7016    0.4074   -0.9222 C   0  0  2  0  0  0  0  0  0  0  0  0
   -0.4003   -0.0796   -0.1841 C   0  0  0  0  0  0  0  0  0  0  0  0
   -0.4432   -0.9395    0.7045 O   0  0  0  0  0  0  0  0  0  0  0  0
    0.8524    0.4651   -0.5303 N   0  0  0  0  0  0  0  0  0  0  0  0
    2.0854    0.0314    0.1421 C   0  0  0  0  0  0  0  0  0  0  0  0
    3.2959    0.7203   -0.3556 C   0  0  0  0  0  0  0  0  0  0  0  0
    4.4624    0.2181    0.3882 C   0  0  0  0  0  0  0  0  0  0  0  0
    5.7192    0.7041    0.1196 O   0  0  0  0  0  1  0  0  0  0  0  0
    4.3562   -0.6513    1.2735 O   0  0  0  0  0  0  0  0  0  0  0  0
   -1.9882    1.7664    0.0957 C   0  0  1  0  0  0  0  0  0  0  0  0
   -1.4978    2.8276   -1.0720 C   0  0  0  0  0  0  0  0  0  0  0  0
   -3.4362    1.8757   -0.3023 O   0  0  0  0  0  0  0  0  0  0  0  0
    4.1801   -2.6334   -1.1283 C   0  0  0  0  0  0  0  0  0  0  0  0
    4.7877   -1.0964   -0.9694 C   0  0  2  0  0  0  0  0  0  0  0  0
    5.9576   -1.6055    0.1215 C   0  0  0  0  0  0  0  0  0  0  0  0
    6.6091   -0.3079    0.3712 N   0  0  0  0  0  0  0  0  0  0  0  0
    6.2994    0.5642    1.2935 N   0  0  0  0  0  0  0  0  0  0  0  0
    7.1387    1.6051    1.1742 C   0  0  0  0  0  0  0  0  0  0  0  0
    7.9613    1.3325    0.1532 N   0  0  0  0  0  0  0  0  0  0  0  0
    7.6233    0.1650   -0.3219 N   0  0  0  0  0  0  0  0  0  0  0  0
    3.7723   -0.7282    0.1938 N   0  0  0  0  0  0  0  0  0  0  0  0
    2.3960   -0.8314   -0.2306 C   0  0  0  0  0  0  0  0  0  0  0  0
    2.0201   -1.1921   -1.4509 N   0  0  0  0  0  0  0  0  0  0  0  0
    0.7187   -1.2737   -1.7991 C   0  0  0  0  0  0  0  0  0  0  0  0
   -0.2374   -0.9763   -0.8675 C   0  0  0  0  0  0  0  0  0  0  0  0
   -1.5770   -1.0478   -1.1845 C   0  0  0  0  0  0  0  0  0  0  0  0
   -2.5600   -0.7517   -0.2589 C   0  0  0  0  0  0  0  0  0  0  0  0
   -3.8965   -0.8274   -0.5897 O   0  0  0  0  0  0  0  0  0  0  0  0
   -4.6947    0.3117   -0.4955 C   0  0  0  0  0  0  0  0  0  0  0  0
   -4.1794    1.5288   -0.0754 C   0  0  0  0  0  0  0  0  0  0  0  0
   -4.9466    2.6588    0.0237 C   0  0  0  0  0  0  0  0  0  0  0  0
   -6.2740    2.5936   -0.3023 C   0  0  0  0  0  0  0  0  0  0  0  0
   -7.0541    3.7042   -0.2110 F   0  0  0  0  0  0  0  0  0  0  0  0
   -6.7959    1.3868   -0.7215 C   0  0  0  0  0  0  0  0  0  0  0  0
   -6.0417    0.2376   -0.8284 C   0  0  0  0  0  0  0  0  0  0  0  0
   -6.5405   -0.9502   -1.2375 F   0  0  0  0  0  0  0  0  0  0  0  0
   -2.1347   -0.3817    0.9953 C   0  0  0  0  0  0  0  0  0  0  0  0
   -2.9830   -0.1033    1.8700 O   0  0  0  0  0  0  0  0  0  0  0  0
   -0.8062   -0.3115    1.3070 N   0  0  0  0  0  0  0  0  0  0  0  0
   -0.3506    0.0781    2.6282 C   0  0  0  0  0  0  0  0  0  0  0  0
    0.1446   -0.6026    0.3964 C   0  0  0  0  0  0  0  0  0  0  0  0
    1.4633   -0.5451    0.6655 N   0  0  0  0  0  0  0  0  0  0  0  0
  1  2  1  0
  2  3  2  0
  2  4  1  0
  5  4  1  1
  5  6  1  0
  6  7  2  0
  6  8  1  0
  8  9  1  0
  9 10  1  0
 10 11  1  0
 11 12  1  0
 11 13  2  0
  5 14  1  0
 14 15  1  6
 14 16  1  0
 18 17  1  6
 18 19  1  0
 19 20  1  0
 20 21  1  0
 21 22  2  0
 22 23  1  0
 23 24  2  0
 18 25  1  0
 25 26  1  0
 26 27  2  0
 27 28  1  0
 28 29  2  0
 29 30  1  0
 30 31  2  0
 31 32  1  0
 32 33  1  0
 33 34  2  0
 34 35  1  0
 35 36  2  0
 36 37  1  0
 36 38  1  0
 38 39  2  0
 39 40  1  0
 31 41  1  0
 41 42  2  0
 41 43  1  0
 43 44  1  0
 43 45  1  0
 45 46  2  0
 24 20  1  0
 46 26  1  0
 45 29  1  0
 39 33  1  0
M  RAD  1  12   2
M  END

