
     RDKit          3D

 51 54  0  0  0  0  0  0  0  0999 V2000
    4.6489   -0.4005   -2.0138 C   0  0  0  0  0  0  0  0  0  0  0  0
    4.7747    1.1732   -1.6125 C   0  0  2  0  0  0  0  0  0  0  0  0
    6.1913    1.0063   -0.8468 C   0  0  0  0  0  0  0  0  0  0  0  0
    6.0365    0.0748    0.2428 N   0  0  0  0  0  0  0  0  0  0  0  0
    5.6999    0.3109    1.4975 N   0  0  0  0  0  0  0  0  0  0  0  0
    5.6680   -0.8173    2.1837 C   0  0  0  0  0  0  0  0  0  0  0  0
    5.9966   -1.7809    1.3205 N   0  0  0  0  0  0  0  0  0  0  0  0
    6.2167   -1.2246    0.1498 N   0  0  0  0  0  0  0  0  0  0  0  0
    3.8940    1.0401   -0.3423 N   0  0  0  0  0  0  0  0  0  0  0  0
    2.5501    0.5782   -0.6105 C   0  0  0  0  0  0  0  0  0  0  0  0
    2.1339    0.2993   -1.8513 N   0  0  0  0  0  0  0  0  0  0  0  0
    0.9061   -0.1327   -2.1815 C   0  0  0  0  0  0  0  0  0  0  0  0
    0.0127   -0.2937   -1.1146 C   0  0  0  0  0  0  0  0  0  0  0  0
   -1.2703   -0.7290   -1.3222 C   0  0  0  0  0  0  0  0  0  0  0  0
   -2.1422   -0.8845   -0.2669 C   0  0  0  0  0  0  0  0  0  0  0  0
   -3.4412   -1.3255   -0.4789 O   0  0  0  0  0  0  0  0  0  0  0  0
   -4.5529   -0.5712   -0.1315 C   0  0  0  0  0  0  0  0  0  0  0  0
   -5.4613   -1.0828    0.7792 C   0  0  0  0  0  0  0  0  0  0  0  0
   -6.5456   -0.2713    1.0760 C   0  0  0  0  0  0  0  0  0  0  0  0
   -6.7354    0.9620    0.5215 C   0  0  0  0  0  0  0  0  0  0  0  0
   -7.8218    1.7164    0.8514 F   0  0  0  0  0  0  0  0  0  0  0  0
   -5.8052    1.4289   -0.3794 C   0  0  0  0  0  0  0  0  0  0  0  0
   -4.7116    0.6599   -0.7062 C   0  0  0  0  0  0  0  0  0  0  0  0
   -3.8344    1.1788   -1.5994 F   0  0  0  0  0  0  0  0  0  0  0  0
   -1.6594   -0.5825    0.9887 C   0  0  0  0  0  0  0  0  0  0  0  0
   -2.4877   -0.7362    1.9403 O   0  0  0  0  0  0  0  0  0  0  0  0
   -0.4211   -0.1572    1.2327 N   0  0  0  0  0  0  0  0  0  0  0  0
    0.0511    0.1511    2.5706 C   0  0  0  0  0  0  0  0  0  0  0  0
    0.4236   -0.0112    0.1709 C   0  0  0  0  0  0  0  0  0  0  0  0
    1.6860    0.4210    0.4088 N   0  0  0  0  0  0  0  0  0  0  0  0
   -0.3398   -0.5349   -1.3458 C   0  0  0  0  0  0  0  0  0  0  0  0
   -0.5044    1.0802   -1.3511 C   0  0  2  0  0  0  0  0  0  0  0  0
    0.1868    1.3665    0.0017 N   0  0  0  0  0  0  0  0  0  0  0  0
    0.9764    0.4556    0.6752 C   0  0  0  0  0  0  0  0  0  0  0  0
    1.1147   -0.6764    0.0989 O   0  0  0  0  0  0  0  0  0  0  0  0
    1.6199    0.7548    1.9658 C   0  0  0  0  0  0  0  0  0  0  0  0
    2.6172   -0.3513    2.1676 C   0  0  0  0  0  0  0  0  0  0  0  0
    3.6894   -0.4340    1.1895 C   0  0  0  0  0  0  0  0  0  0  0  0
    3.6698   -1.1773    0.0467 C   0  0  0  0  0  0  0  0  0  0  0  0
    4.7836   -1.1412   -0.7856 C   0  0  0  0  0  0  0  0  0  0  0  0
    5.8824   -0.3819   -0.4788 C   0  0  0  0  0  0  0  0  0  0  0  0
    5.9103    0.3759    0.6784 C   0  0  0  0  0  0  0  0  0  0  0  0
    4.8241    0.3495    1.5047 C   0  0  0  0  0  0  0  0  0  0  0  0
   -1.9854    1.0655   -0.8376 C   0  0  0  0  0  0  0  0  0  0  0  0
   -2.3382    1.3329    0.2792 O   0  0  0  0  0  0  0  0  0  0  0  0
   -2.8609    0.6775   -1.8929 N   0  0  0  0  0  0  0  0  0  0  0  0
   -4.2984    0.5768   -1.6310 C   0  0  0  0  0  0  0  0  0  0  0  0
   -4.3733   -0.4538   -0.4897 C   0  0  0  0  0  0  0  0  0  0  0  0
   -5.7657   -0.6803   -0.0805 C   0  0  0  0  0  0  0  0  0  0  0  0
   -6.1326   -1.5078    1.0124 N   0  0  0  0  0  0  0  0  0  0  0  0
   -6.6759   -0.1192   -0.7271 O   0  0  0  0  0  0  0  0  0  0  0  0
  2  1  1  6
  2  3  1  0
  3  4  1  0
  4  5  1  0
  5  6  2  0
  6  7  1  0
  7  8  2  0
  2  9  1  0
  9 10  1  0
 10 11  2  0
 11 12  1  0
 12 13  2  0
 13 14  1  0
 14 15  2  0
 15 16  1  0
 16 17  1  0
 17 18  2  0
 18 19  1  0
 19 20  2  0
 20 21  1  0
 20 22  1  0
 22 23  2  0
 23 24  1  0
 15 25  1  0
 25 26  2  0
 25 27  1  0
 27 28  1  0
 27 29  1  0
 29 30  2  0
 32 31  1  1
 32 33  1  0
 33 34  1  0
 34 35  2  0
 34 36  1  0
 36 37  1  0
 37 38  1  0
 38 39  2  0
 39 40  1  0
 40 41  2  0
 41 42  1  0
 42 43  2  0
 32 44  1  0
 44 45  2  0
 44 46  1  0
 46 47  1  0
 47 48  1  0
 48 49  1  0
 49 50  1  0
 49 51  2  0
  8  4  1  0
 30 10  1  0
 43 38  1  0
 29 13  1  0
 23 17  1  0
M  END

