
     RDKit          3D

 46 48  0  0  0  0  0  0  0  0999 V2000
    1.3391    1.7528   -2.6803 C   0  0  0  0  0  0  0  0  0  0  0  0
    1.9805    2.1580   -1.3672 C   0  0  0  0  0  0  0  0  0  0  0  0
    1.5894    1.2376   -0.2942 N   0  0  0  0  0  0  0  0  0  0  0  0
    0.2431    1.0495    0.0847 C   0  0  0  0  0  0  0  0  0  0  0  0
   -0.6829    1.6381   -0.4529 O   0  0  0  0  0  0  0  0  0  0  0  0
   -0.0261    0.0160    1.2675 C   0  0  2  0  0  0  0  0  0  0  0  0
    0.0193   -1.3267    0.2954 C   0  0  0  0  0  0  0  0  0  0  0  0
    1.4211   -1.2356   -0.2693 C   0  0  0  0  0  0  0  0  0  0  0  0
    2.4349   -1.2746    0.8125 C   0  0  0  0  0  0  0  0  0  0  0  0
    3.8194   -1.2001    0.5131 N   0  0  0  0  0  0  0  0  0  0  0  0
    2.0243   -1.3751    1.9937 O   0  0  0  0  0  0  0  0  0  0  0  0
   -1.5888    0.1339    1.3124 N   0  0  0  0  0  0  0  0  0  0  0  0
   -2.3674   -0.2321    0.2427 C   0  0  0  0  0  0  0  0  0  0  0  0
   -1.8587   -0.6761   -0.8091 O   0  0  0  0  0  0  0  0  0  0  0  0
   -3.8433   -0.1057    0.3166 C   0  0  0  0  0  0  0  0  0  0  0  0
   -4.5039   -0.5600   -0.9656 C   0  0  0  0  0  0  0  0  0  0  0  0
    5.9325   -0.8570   -1.4433 C   0  0  0  0  0  0  0  0  0  0  0  0
    4.7786    0.2514   -0.9761 C   0  0  2  0  0  0  0  0  0  0  0  0
    4.7365   -0.3123    0.5870 C   0  0  0  0  0  0  0  0  0  0  0  0
    6.0957   -0.1240    1.0555 N   0  0  0  0  0  0  0  0  0  0  0  0
    6.6663    0.8848    1.6501 N   0  0  0  0  0  0  0  0  0  0  0  0
    7.9528    0.5691    1.8822 C   0  0  0  0  0  0  0  0  0  0  0  0
    8.1404   -0.6715    1.4048 N   0  0  0  0  0  0  0  0  0  0  0  0
    7.0093   -1.0762    0.9088 N   0  0  0  0  0  0  0  0  0  0  0  0
    3.5882   -0.6859   -1.4331 N   0  0  0  0  0  0  0  0  0  0  0  0
    2.3140   -0.0966   -1.2036 C   0  0  0  0  0  0  0  0  0  0  0  0
    2.1653    1.1228   -0.6576 N   0  0  0  0  0  0  0  0  0  0  0  0
    0.9689    1.6977   -0.4325 C   0  0  0  0  0  0  0  0  0  0  0  0
   -0.1520    0.9772   -0.7896 C   0  0  0  0  0  0  0  0  0  0  0  0
   -1.4217    1.4931   -0.5932 C   0  0  0  0  0  0  0  0  0  0  0  0
   -2.5237    0.7663   -0.9527 C   0  0  0  0  0  0  0  0  0  0  0  0
   -3.7976    1.2999   -0.7484 O   0  0  0  0  0  0  0  0  0  0  0  0
   -4.7582    0.7271    0.0372 C   0  0  0  0  0  0  0  0  0  0  0  0
   -5.9599    0.3765   -0.5798 C   0  0  0  0  0  0  0  0  0  0  0  0
   -6.9361   -0.1959    0.1759 C   0  0  0  0  0  0  0  0  0  0  0  0
   -6.7670   -0.4372    1.5339 C   0  0  0  0  0  0  0  0  0  0  0  0
   -7.7888   -1.0069    2.1966 F   0  0  0  0  0  0  0  0  0  0  0  0
   -5.5697   -0.0823    2.1243 C   0  0  0  0  0  0  0  0  0  0  0  0
   -4.5819    0.4948    1.3688 C   0  0  0  0  0  0  0  0  0  0  0  0
   -3.4212    0.8302    1.9791 F   0  0  0  0  0  0  0  0  0  0  0  0
   -2.3752   -0.4675   -1.5052 C   0  0  0  0  0  0  0  0  0  0  0  0
   -3.3505   -1.1759   -1.8527 O   0  0  0  0  0  0  0  0  0  0  0  0
   -1.1462   -0.9611   -1.6927 N   0  0  0  0  0  0  0  0  0  0  0  0
   -0.9708   -2.2832   -2.2842 C   0  0  0  0  0  0  0  0  0  0  0  0
   -0.0305   -0.2772   -1.3522 C   0  0  0  0  0  0  0  0  0  0  0  0
    1.2025   -0.7803   -1.5439 N   0  0  0  0  0  0  0  0  0  0  0  0
  1  2  1  0
  2  3  1  0
  3  4  1  0
  4  5  2  0
  4  6  1  0
  6  7  1  6
  7  8  1  0
  8  9  1  0
  9 10  1  0
  9 11  2  0
  6 12  1  0
 12 13  1  0
 13 14  2  0
 13 15  1  0
 15 16  1  0
 18 17  1  6
 18 19  1  0
 19 20  1  0
 20 21  1  0
 21 22  2  0
 22 23  1  0
 23 24  2  0
 18 25  1  0
 25 26  1  0
 26 27  2  0
 27 28  1  0
 28 29  2  0
 29 30  1  0
 30 31  2  0
 31 32  1  0
 32 33  1  0
 33 34  2  0
 34 35  1  0
 35 36  2  0
 36 37  1  0
 36 38  1  0
 38 39  2  0
 39 40  1  0
 31 41  1  0
 41 42  2  0
 41 43  1  0
 43 44  1  0
 43 45  1  0
 45 46  2  0
 24 20  1  0
 46 26  1  0
 45 29  1  0
 39 33  1  0
M  END

