
     RDKit          3D

 52 54  0  0  0  0  0  0  0  0999 V2000
   -2.0754   -4.7378    1.8415 C   0  0  0  0  0  0  0  0  0  0  0  0
   -0.5523   -3.8507    1.3847 S   0  0  0  0  0  0  0  0  0  0  0  0
   -0.5011   -2.2151    2.1320 C   0  0  0  0  0  0  0  0  0  0  0  0
   -1.6092   -1.3931    1.5098 C   0  0  0  0  0  0  0  0  0  0  0  0
   -1.0975   -1.4545   -0.0998 C   0  0  2  0  0  0  0  0  0  0  0  0
    0.2878   -0.7642    0.2427 N   0  0  0  0  0  0  0  0  0  0  0  0
    1.4243   -1.3847   -0.3451 C   0  0  0  0  0  0  0  0  0  0  0  0
    1.3864   -2.3970   -1.0755 O   0  0  0  0  0  0  0  0  0  0  0  0
    2.7594   -0.7761   -0.0624 C   0  0  0  0  0  0  0  0  0  0  0  0
    3.9059   -1.4428   -0.7077 C   0  0  0  0  0  0  0  0  0  0  0  0
    5.1622   -0.6739   -0.2914 C   0  0  0  0  0  0  0  0  0  0  0  0
    4.9790    0.7400   -0.7719 C   0  0  0  0  0  0  0  0  0  0  0  0
    6.1777    1.6017   -0.3992 C   0  0  0  0  0  0  0  0  0  0  0  0
    5.8697    2.9345   -0.9171 N   0  0  0  0  0  4  0  0  0  0  0  0
   -1.8644   -0.0741   -0.4767 C   0  0  0  0  0  0  0  0  0  0  0  0
   -1.1640    0.7736   -1.0813 O   0  0  0  0  0  0  0  0  0  0  0  0
   -3.1748    0.0870   -0.1244 N   0  0  0  0  0  0  0  0  0  0  0  0
   -3.8611    1.3259   -0.4539 C   0  0  0  0  0  0  0  0  0  0  0  0
   -3.0726    2.4403    0.1959 C   0  0  0  0  0  0  0  0  0  0  0  0
   -3.7806    3.7574   -0.0805 C   0  0  0  0  0  0  0  0  0  0  0  0
   -5.1643    3.6176    0.5760 C   0  0  0  0  0  0  0  0  0  0  0  0
   -4.0351    3.8857   -1.5878 C   0  0  0  0  0  0  0  0  0  0  0  0
    4.8658    1.7452    0.0695 C   0  0  0  0  0  0  0  0  0  0  0  0
    5.2122    0.8667    1.3981 C   0  0  2  0  0  0  0  0  0  0  0  0
    4.9207   -0.5675    0.6879 C   0  0  0  0  0  0  0  0  0  0  0  0
    5.8491   -0.6458   -0.4204 N   0  0  0  0  0  0  0  0  0  0  0  0
    5.5640   -0.2060   -1.6331 N   0  0  0  0  0  0  0  0  0  0  0  0
    6.6158   -0.4108   -2.4548 C   0  0  0  0  0  0  0  0  0  0  0  0
    7.5600   -0.9917   -1.7095 N   0  0  0  0  0  0  0  0  0  0  0  0
    7.0705   -1.1233   -0.4795 N   0  0  0  0  0  0  0  0  0  0  0  0
    3.8090    1.0393    2.0269 N   0  0  0  0  0  0  0  0  0  0  0  0
    2.6781    0.6148    1.3356 C   0  0  0  0  0  0  0  0  0  0  0  0
    2.6655    0.0433    0.1228 N   0  0  0  0  0  0  0  0  0  0  0  0
    1.4946   -0.3215   -0.4340 C   0  0  0  0  0  0  0  0  0  0  0  0
    0.2866   -0.1274    0.2043 C   0  0  0  0  0  0  0  0  0  0  0  0
   -0.9186   -0.4833   -0.3281 C   0  0  0  0  0  0  0  0  0  0  0  0
   -2.1496   -0.2798    0.3337 C   0  0  0  0  0  0  0  0  0  0  0  0
   -3.2376   -0.6418   -0.2333 O   0  0  0  0  0  0  0  0  0  0  0  0
   -4.4166   -0.5554   -0.7664 C   0  0  0  0  0  0  0  0  0  0  0  0
   -4.4733   -0.9614   -2.1235 C   0  0  0  0  0  0  0  0  0  0  0  0
   -5.6203   -0.9414   -2.8516 C   0  0  0  0  0  0  0  0  0  0  0  0
   -6.7862   -0.5232   -2.2998 C   0  0  0  0  0  0  0  0  0  0  0  0
   -7.9504   -0.4859   -2.9881 F   0  0  0  0  0  0  0  0  0  0  0  0
   -6.7909   -0.1187   -0.9887 C   0  0  0  0  0  0  0  0  0  0  0  0
   -5.6223   -0.1426   -0.2582 C   0  0  0  0  0  0  0  0  0  0  0  0
   -5.6572    0.2548    1.0324 F   0  0  0  0  0  0  0  0  0  0  0  0
   -2.0464    0.3089    1.5674 C   0  0  0  0  0  0  0  0  0  0  0  0
   -3.0389    0.5616    2.2922 O   0  0  0  0  0  0  0  0  0  0  0  0
   -0.8463    0.6641    2.0991 N   0  0  0  0  0  0  0  0  0  0  0  0
   -0.8420    1.2784    3.4047 C   0  0  0  0  0  0  0  0  0  0  0  0
    0.3048    0.4565    1.4426 C   0  0  0  0  0  0  0  0  0  0  0  0
    1.5000    0.8011    1.9518 N   0  0  0  0  0  0  0  0  0  0  0  0
  1  2  1  0
  2  3  1  0
  3  4  1  0
  5  4  1  1
  5  6  1  0
  6  7  1  0
  7  8  2  0
  7  9  1  0
  9 10  1  0
 10 11  1  0
 11 12  1  0
 12 13  1  0
 13 14  1  0
  5 15  1  0
 15 16  2  0
 15 17  1  0
 17 18  1  0
 18 19  1  0
 19 20  1  0
 20 21  1  0
 20 22  1  0
 24 23  1  6
 24 25  1  0
 25 26  1  0
 26 27  1  0
 27 28  2  0
 28 29  1  0
 29 30  2  0
 24 31  1  0
 31 32  1  0
 32 33  2  0
 33 34  1  0
 34 35  2  0
 35 36  1  0
 36 37  2  0
 37 38  1  0
 38 39  1  0
 39 40  2  0
 40 41  1  0
 41 42  2  0
 42 43  1  0
 42 44  1  0
 44 45  2  0
 45 46  1  0
 37 47  1  0
 47 48  2  0
 47 49  1  0
 49 50  1  0
 49 51  1  0
 51 52  2  0
 30 26  1  0
 52 32  1  0
 51 35  1  0
 45 39  1  0
M  CHG  1  14   1
M  END

