
     RDKit          3D

 50 52  0  0  0  0  0  0  0  0999 V2000
   -5.7798   -1.8977    0.3956 C   0  0  0  0  0  0  0  0  0  0  0  0
   -5.5224   -0.7008   -0.4560 C   0  0  0  0  0  0  0  0  0  0  0  0
   -5.5128   -1.0242   -1.9214 C   0  0  0  0  0  0  0  0  0  0  0  0
   -4.3126    0.0986   -0.0356 C   0  0  0  0  0  0  0  0  0  0  0  0
   -4.4230    0.6218    1.3626 C   0  0  0  0  0  0  0  0  0  0  0  0
   -3.2463    1.3669    1.6929 N   0  0  0  0  0  0  0  0  0  0  0  0
   -1.9427    0.7984    1.6865 C   0  0  0  0  0  0  0  0  0  0  0  0
   -1.8702   -0.4223    1.3685 O   0  0  0  0  0  0  0  0  0  0  0  0
   -0.7362    1.6009    2.0354 C   0  0  0  0  0  0  0  0  0  0  0  0
    0.4681    0.8390    1.9662 N   0  0  0  0  0  0  0  0  0  0  0  0
    0.8619    0.2309    0.7237 C   0  0  0  0  0  0  0  0  0  0  0  0
    0.1642    0.3573   -0.3061 O   0  0  0  0  0  0  0  0  0  0  0  0
    2.1100   -0.5619    0.6414 C   0  0  0  0  0  0  0  0  0  0  0  0
    2.2372   -1.0664   -0.8065 C   0  0  0  0  0  0  0  0  0  0  0  0
    2.2892    0.1439   -1.6717 C   0  0  0  0  0  0  0  0  0  0  0  0
    3.4605    0.9931   -1.4340 C   0  0  0  0  0  0  0  0  0  0  0  0
    4.6907    0.4772   -1.7445 N   0  0  0  0  0  0  0  0  0  0  0  0
    5.3998   -0.6039   -1.2978 C   0  0  0  0  0  0  0  0  0  0  0  0
    6.7230   -0.9456   -1.8029 N   0  0  0  0  0  0  0  0  0  0  0  0
    4.9415   -1.3951   -0.3964 N   0  0  0  0  0  4  0  0  0  0  0  0
    3.4424   -2.1860   -0.7116 C   0  0  0  0  0  0  0  0  0  0  0  0
    4.3100   -0.7730   -0.5202 C   0  0  2  0  0  0  0  0  0  0  0  0
    5.4984   -1.5395    0.3585 C   0  0  0  0  0  0  0  0  0  0  0  0
    6.3963   -0.4374    0.6388 N   0  0  0  0  0  0  0  0  0  0  0  0
    6.3402    0.3591    1.6945 N   0  0  0  0  0  0  0  0  0  0  0  0
    7.3442    1.2451    1.5785 C   0  0  0  0  0  0  0  0  0  0  0  0
    7.9901    0.9637    0.4477 N   0  0  0  0  0  0  0  0  0  0  0  0
    7.4070   -0.0677   -0.1259 N   0  0  0  0  0  0  0  0  0  0  0  0
    3.4989   -0.3681    0.7817 N   0  0  0  0  0  0  0  0  0  0  0  0
    2.0896   -0.2269    0.5191 C   0  0  0  0  0  0  0  0  0  0  0  0
    1.3151    0.1163    1.5669 N   0  0  0  0  0  0  0  0  0  0  0  0
   -0.0069    0.2609    1.3754 C   0  0  0  0  0  0  0  0  0  0  0  0
   -0.5806    0.0676    0.1428 C   0  0  0  0  0  0  0  0  0  0  0  0
   -1.9297    0.2113   -0.0697 C   0  0  0  0  0  0  0  0  0  0  0  0
   -2.4647    0.0061   -1.3307 C   0  0  0  0  0  0  0  0  0  0  0  0
   -3.8250    0.1393   -1.5977 O   0  0  0  0  0  0  0  0  0  0  0  0
   -4.7242    0.4834   -0.6245 C   0  0  0  0  0  0  0  0  0  0  0  0
   -5.4820    1.6460   -0.7681 C   0  0  0  0  0  0  0  0  0  0  0  0
   -6.3973    2.0236    0.1924 C   0  0  0  0  0  0  0  0  0  0  0  0
   -6.5267    1.1965    1.3007 C   0  0  0  0  0  0  0  0  0  0  0  0
   -7.4149    1.5364    2.2619 F   0  0  0  0  0  0  0  0  0  0  0  0
   -5.7755    0.0461    1.4409 C   0  0  0  0  0  0  0  0  0  0  0  0
   -4.8625   -0.3254    0.4771 C   0  0  0  0  0  0  0  0  0  0  0  0
   -4.1086   -1.4545    0.5896 F   0  0  0  0  0  0  0  0  0  0  0  0
   -1.5856   -0.3419   -2.3337 C   0  0  0  0  0  0  0  0  0  0  0  0
   -2.0885   -0.5297   -3.4962 O   0  0  0  0  0  0  0  0  0  0  0  0
   -0.2621   -0.4884   -2.1499 N   0  0  0  0  0  0  0  0  0  0  0  0
    0.6158   -0.8611   -3.2643 C   0  0  0  0  0  0  0  0  0  0  0  0
    0.2425   -0.2823   -0.9041 C   0  0  0  0  0  0  0  0  0  0  0  0
    1.5440   -0.4194   -0.6922 N   0  0  0  0  0  0  0  0  0  0  0  0
  1  2  1  0
  2  3  1  0
  2  4  1  0
  4  5  1  0
  5  6  1  0
  6  7  1  0
  7  8  2  0
  7  9  1  0
  9 10  1  0
 10 11  1  0
 11 12  2  0
 11 13  1  0
 13 14  1  0
 14 15  1  0
 15 16  1  0
 16 17  1  0
 17 18  1  0
 18 19  1  0
 18 20  2  0
 22 21  1  6
 22 23  1  0
 23 24  1  0
 24 25  1  0
 25 26  2  0
 26 27  1  0
 27 28  2  0
 22 29  1  0
 29 30  1  0
 30 31  2  0
 31 32  1  0
 32 33  2  0
 33 34  1  0
 34 35  2  0
 35 36  1  0
 36 37  1  0
 37 38  2  0
 38 39  1  0
 39 40  2  0
 40 41  1  0
 40 42  1  0
 42 43  2  0
 43 44  1  0
 35 45  1  0
 45 46  2  0
 45 47  1  0
 47 48  1  0
 47 49  1  0
 49 50  2  0
 28 24  1  0
 50 30  1  0
 49 33  1  0
 43 37  1  0
M  CHG  1  20   1
M  END

