
     RDKit          3D

 57 60  0  0  0  0  0  0  0  0999 V2000
    0.0602   -0.5216   -1.4882 C   0  0  0  0  0  0  0  0  0  0  0  0
   -0.0345   -1.5048   -0.2366 C   0  0  1  0  0  0  0  0  0  0  0  0
    1.2786   -2.2208   -0.4568 O   0  0  0  0  0  0  0  0  0  0  0  0
    0.4910   -0.5428    1.0346 C   0  0  2  0  0  0  0  0  0  0  0  0
   -0.7545    0.3718    1.2402 N   0  0  0  0  0  0  0  0  0  0  0  0
   -1.9634   -0.2332    0.8808 C   0  0  0  0  0  0  0  0  0  0  0  0
   -1.9904   -1.4231    0.4979 O   0  0  0  0  0  0  0  0  0  0  0  0
   -3.2312    0.5738    0.9579 C   0  0  0  0  0  0  0  0  0  0  0  0
   -4.3438   -0.3741    0.5377 C   0  0  0  0  0  0  0  0  0  0  0  0
   -5.2949   -0.6453    1.6875 C   0  0  0  0  0  0  0  0  0  0  0  0
   -5.9830    0.6980    2.0177 C   0  0  0  0  0  0  0  0  0  0  0  0
   -6.6232    0.9942    0.6832 N   0  0  0  0  0  0  0  0  0  0  0  0
   -7.3962   -0.0220    0.0441 C   0  0  0  0  0  0  0  0  0  0  0  0
   -8.0178    0.1889   -1.2174 N   0  0  0  0  0  0  0  0  0  0  0  0
   -7.4856   -1.1399    0.6600 N   0  0  0  0  0  4  0  0  0  0  0  0
    1.4386    0.4898    0.3101 C   0  0  0  0  0  0  0  0  0  0  0  0
    2.2756    0.9406    1.1210 O   0  0  0  0  0  0  0  0  0  0  0  0
    1.3911    0.8575   -0.9601 N   0  0  0  0  0  0  0  0  0  0  0  0
    2.2271    1.7395   -1.6340 C   0  0  0  0  0  0  0  0  0  0  0  0
    3.5805    1.2832   -1.9396 C   0  0  0  0  0  0  0  0  0  0  0  0
    4.5076    0.7906   -1.0182 C   0  0  0  0  0  0  0  0  0  0  0  0
    5.3729    1.5689   -0.2388 C   0  0  0  0  0  0  0  0  0  0  0  0
    6.3195    1.0565    0.6073 C   0  0  0  0  0  0  0  0  0  0  0  0
    6.4570   -0.3075    0.7297 C   0  0  0  0  0  0  0  0  0  0  0  0
    7.4210   -0.8891    1.5830 O   0  0  0  0  0  0  0  0  0  0  0  0
    5.6225   -1.1491   -0.0081 C   0  0  0  0  0  0  0  0  0  0  0  0
    4.6752   -0.5802   -0.8592 C   0  0  0  0  0  0  0  0  0  0  0  0
    4.0770    0.5638   -0.5618 C   0  0  0  0  0  0  0  0  0  0  0  0
    4.4888   -0.1869    0.8719 C   0  0  2  0  0  0  0  0  0  0  0  0
    5.7941   -0.9566    0.1744 C   0  0  0  0  0  0  0  0  0  0  0  0
    6.6327    0.1140   -0.2999 N   0  0  0  0  0  0  0  0  0  0  0  0
    6.4974    0.6165   -1.5257 N   0  0  0  0  0  0  0  0  0  0  0  0
    7.3774    1.5882   -1.7308 C   0  0  0  0  0  0  0  0  0  0  0  0
    8.0878    1.6947   -0.5887 N   0  0  0  0  0  0  0  0  0  0  0  0
    7.6032    0.7809    0.2547 N   0  0  0  0  0  0  0  0  0  0  0  0
    3.5362   -1.4087    0.6222 N   0  0  0  0  0  0  0  0  0  0  0  0
    2.1498   -1.1372    0.4781 C   0  0  0  0  0  0  0  0  0  0  0  0
    1.7698    0.1488    0.5683 N   0  0  0  0  0  0  0  0  0  0  0  0
    0.5115    0.5984    0.4594 C   0  0  0  0  0  0  0  0  0  0  0  0
   -0.4810   -0.3619    0.2326 C   0  0  0  0  0  0  0  0  0  0  0  0
   -1.8089    0.0240    0.1082 C   0  0  0  0  0  0  0  0  0  0  0  0
   -2.7417   -0.9647   -0.1141 C   0  0  0  0  0  0  0  0  0  0  0  0
   -4.0952   -0.6855   -0.2532 O   0  0  0  0  0  0  0  0  0  0  0  0
   -4.5832    0.5889   -0.1777 C   0  0  0  0  0  0  0  0  0  0  0  0
   -3.7386    1.6507    0.0413 C   0  0  0  0  0  0  0  0  0  0  0  0
   -4.2258    2.9316    0.1175 C   0  0  0  0  0  0  0  0  0  0  0  0
   -5.5969    3.1491   -0.0303 C   0  0  0  0  0  0  0  0  0  0  0  0
   -6.1285    4.3839    0.0354 F   0  0  0  0  0  0  0  0  0  0  0  0
   -6.4581    2.0923   -0.2509 C   0  0  0  0  0  0  0  0  0  0  0  0
   -5.9379    0.8005   -0.3242 C   0  0  0  0  0  0  0  0  0  0  0  0
   -6.7262   -0.2732   -0.5375 F   0  0  0  0  0  0  0  0  0  0  0  0
   -2.3059   -2.2693   -0.1993 C   0  0  0  0  0  0  0  0  0  0  0  0
   -3.2074   -3.1556   -0.4067 O   0  0  0  0  0  0  0  0  0  0  0  0
   -1.0198   -2.6140   -0.0757 N   0  0  0  0  0  0  0  0  0  0  0  0
   -0.6118   -3.9911   -0.1721 C   0  0  0  0  0  0  0  0  0  0  0  0
   -0.0748   -1.6784    0.1425 C   0  0  0  0  0  0  0  0  0  0  0  0
    1.2158   -2.0432    0.2646 N   0  0  0  0  0  0  0  0  0  0  0  0
  2  1  1  6
  2  3  1  0
  2  4  1  0
  4  5  1  6
  5  6  1  0
  6  7  2  0
  6  8  1  0
  8  9  1  0
  9 10  1  0
 10 11  1  0
 11 12  1  0
 12 13  1  0
 13 14  1  0
 13 15  2  0
  4 16  1  0
 16 17  2  0
 16 18  1  0
 18 19  1  0
 19 20  1  0
 20 21  1  0
 21 22  2  0
 22 23  1  0
 23 24  2  0
 24 25  1  0
 24 26  1  0
 26 27  2  0
 29 28  1  6
 29 30  1  0
 30 31  1  0
 31 32  1  0
 32 33  2  0
 33 34  1  0
 34 35  2  0
 29 36  1  0
 36 37  1  0
 37 38  2  0
 38 39  1  0
 39 40  2  0
 40 41  1  0
 41 42  2  0
 42 43  1  0
 43 44  1  0
 44 45  2  0
 45 46  1  0
 46 47  2  0
 47 48  1  0
 47 49  1  0
 49 50  2  0
 50 51  1  0
 42 52  1  0
 52 53  2  0
 52 54  1  0
 54 55  1  0
 54 56  1  0
 56 57  2  0
 27 21  1  0
 35 31  1  0
 57 37  1  0
 56 40  1  0
 50 44  1  0
M  CHG  1  15   1
M  END

