
     RDKit          3D

 50 53  0  0  0  0  0  0  0  0999 V2000
   -2.4029   -1.0727    3.1822 C   0  0  0  0  0  0  0  0  0  0  0  0
   -2.8271   -1.0735    1.7446 C   0  0  0  0  0  0  0  0  0  0  0  0
   -3.8413   -2.1330    1.4259 C   0  0  0  0  0  0  0  0  0  0  0  0
   -3.2996    0.2669    1.2537 C   0  0  0  0  0  0  0  0  0  0  0  0
   -2.1708    1.2396    1.4067 C   0  0  0  0  0  0  0  0  0  0  0  0
   -1.9279    1.7013    2.5775 O   0  0  0  0  0  0  0  0  0  0  0  0
   -1.3930    1.6451    0.3192 N   0  0  0  0  0  0  0  0  0  0  0  0
   -0.3207    2.5265    0.2745 C   0  0  0  0  0  0  0  0  0  0  0  0
   -0.5291    3.2489   -0.9952 C   0  0  0  0  0  0  0  0  0  0  0  0
   -1.4559    2.5596   -1.8751 C   0  0  0  0  0  0  0  0  0  0  0  0
   -1.6733    1.0952   -1.1119 C   0  0  1  0  0  0  0  0  0  0  0  0
   -0.2090    0.4806   -1.3921 C   0  0  0  0  0  0  0  0  0  0  0  0
   -0.0898   -0.0588   -2.5183 O   0  0  0  0  0  0  0  0  0  0  0  0
    0.8217    0.5221   -0.5197 N   0  0  0  0  0  0  0  0  0  0  0  0
    2.0927   -0.0584   -0.8682 C   0  0  0  0  0  0  0  0  0  0  0  0
    1.9826   -1.5331   -1.1576 C   0  0  0  0  0  0  0  0  0  0  0  0
    3.3721   -2.0300   -1.5090 C   0  0  0  0  0  0  0  0  0  0  0  0
    4.3125   -1.8084   -0.3921 C   0  0  0  0  0  0  0  0  0  0  0  0
    5.6291   -2.1939   -0.5135 O   0  0  0  0  0  1  0  0  0  0  0  0
    3.9297   -1.2729    0.6684 O   0  0  0  0  0  0  0  0  0  0  0  0
    2.7992    1.6081   -1.4287 C   0  0  0  0  0  0  0  0  0  0  0  0
    3.9527    1.2269   -0.2721 C   0  0  2  0  0  0  0  0  0  0  0  0
    5.1835    1.3062   -1.3938 C   0  0  0  0  0  0  0  0  0  0  0  0
    6.3530    1.0009   -0.6142 N   0  0  0  0  0  0  0  0  0  0  0  0
    6.8526   -0.1947   -0.4090 N   0  0  0  0  0  0  0  0  0  0  0  0
    7.9382   -0.0737    0.3632 C   0  0  0  0  0  0  0  0  0  0  0  0
    8.0696    1.2387    0.6125 N   0  0  0  0  0  0  0  0  0  0  0  0
    7.0893    1.9058    0.0084 N   0  0  0  0  0  0  0  0  0  0  0  0
    3.7516   -0.3281   -0.4808 N   0  0  0  0  0  0  0  0  0  0  0  0
    2.4476   -0.7691   -0.2180 C   0  0  0  0  0  0  0  0  0  0  0  0
    2.0966   -2.0643   -0.3444 N   0  0  0  0  0  0  0  0  0  0  0  0
    0.8400   -2.4737   -0.0885 C   0  0  0  0  0  0  0  0  0  0  0  0
   -0.1302   -1.5758    0.3126 C   0  0  0  0  0  0  0  0  0  0  0  0
   -1.4249   -1.9334    0.5870 C   0  0  0  0  0  0  0  0  0  0  0  0
   -2.2986   -0.9411    0.9790 C   0  0  0  0  0  0  0  0  0  0  0  0
   -3.6346   -1.2585    1.2709 O   0  0  0  0  0  0  0  0  0  0  0  0
   -4.6708   -0.6752    0.5497 C   0  0  0  0  0  0  0  0  0  0  0  0
   -5.6229    0.0898    1.1911 C   0  0  0  0  0  0  0  0  0  0  0  0
   -6.6655    0.6833    0.5032 C   0  0  0  0  0  0  0  0  0  0  0  0
   -6.7968    0.5332   -0.8621 C   0  0  0  0  0  0  0  0  0  0  0  0
   -7.8239    1.1183   -1.5377 F   0  0  0  0  0  0  0  0  0  0  0  0
   -5.8424   -0.2327   -1.4997 C   0  0  0  0  0  0  0  0  0  0  0  0
   -4.8011   -0.8259   -0.8155 C   0  0  0  0  0  0  0  0  0  0  0  0
   -3.8581   -1.5818   -1.4404 F   0  0  0  0  0  0  0  0  0  0  0  0
   -1.9101    0.3782    1.0998 C   0  0  0  0  0  0  0  0  0  0  0  0
   -2.7548    1.2283    1.4605 O   0  0  0  0  0  0  0  0  0  0  0  0
   -0.6288    0.6993    0.8227 N   0  0  0  0  0  0  0  0  0  0  0  0
   -0.2309    2.0994    0.9547 C   0  0  0  0  0  0  0  0  0  0  0  0
    0.2228   -0.2641    0.4413 C   0  0  0  0  0  0  0  0  0  0  0  0
    1.4977    0.0756    0.1690 N   0  0  0  0  0  0  0  0  0  0  0  0
  1  2  1  0
  2  3  1  0
  2  4  1  0
  4  5  1  0
  5  6  2  0
  5  7  1  0
  7  8  1  0
  8  9  1  0
  9 10  1  0
 10 11  1  0
 11 12  1  6
 12 13  2  0
 12 14  1  0
 14 15  1  0
 15 16  1  0
 16 17  1  0
 17 18  1  0
 18 19  1  0
 18 20  2  0
 22 21  1  6
 22 23  1  0
 23 24  1  0
 24 25  1  0
 25 26  2  0
 26 27  1  0
 27 28  2  0
 22 29  1  0
 29 30  1  0
 30 31  2  0
 31 32  1  0
 32 33  2  0
 33 34  1  0
 34 35  2  0
 35 36  1  0
 36 37  1  0
 37 38  2  0
 38 39  1  0
 39 40  2  0
 40 41  1  0
 40 42  1  0
 42 43  2  0
 43 44  1  0
 35 45  1  0
 45 46  2  0
 45 47  1  0
 47 48  1  0
 47 49  1  0
 49 50  2  0
 11  7  1  0
 28 24  1  0
 50 30  1  0
 49 33  1  0
 43 37  1  0
M  RAD  1  19   2
M  END

