
     RDKit          3D

 54 56  0  0  0  0  0  0  0  0999 V2000
    0.8251   -4.3661   -1.7340 C   0  0  0  0  0  0  0  0  0  0  0  0
   -0.6649   -4.0709   -1.1379 C   0  0  1  0  0  0  0  0  0  0  0  0
   -0.9026   -5.5809   -0.8791 O   0  0  0  0  0  0  0  0  0  0  0  0
   -0.1671   -3.8258    0.3971 C   0  0  0  0  0  0  0  0  0  0  0  0
    0.1657   -2.4067    0.5220 N   0  0  0  0  0  0  0  0  0  0  0  0
   -0.8478   -1.4860    0.1744 C   0  0  0  0  0  0  0  0  0  0  0  0
   -1.9169   -1.9260   -0.2314 O   0  0  0  0  0  0  0  0  0  0  0  0
   -0.7051    0.0507    0.2397 C   0  0  2  0  0  0  0  0  0  0  0  0
   -1.9666    0.3276   -0.8396 C   0  0  0  0  0  0  0  0  0  0  0  0
   -2.0374    1.8365   -0.8967 C   0  0  0  0  0  0  0  0  0  0  0  0
   -2.6174    2.2919    0.4985 C   0  0  0  0  0  0  0  0  0  0  0  0
   -3.9610    1.6386    0.3583 N   0  0  0  0  0  0  0  0  0  0  0  0
   -4.9886    1.7737    1.2646 C   0  0  0  0  0  0  0  0  0  0  0  0
   -6.2301    1.0721    0.9290 N   0  0  0  0  0  0  0  0  0  0  0  0
   -4.9386    2.4815    2.3638 N   0  0  0  0  0  4  0  0  0  0  0  0
    0.2838    0.1940   -1.0358 N   0  0  0  0  0  0  0  0  0  0  0  0
    1.4015    1.0451   -0.6234 C   0  0  0  0  0  0  0  0  0  0  0  0
    1.4045    1.5004    0.5641 O   0  0  0  0  0  0  0  0  0  0  0  0
    2.4865    1.3965   -1.5188 C   0  0  0  0  0  0  0  0  0  0  0  0
    3.6368    2.1553   -0.9542 C   0  0  0  0  0  0  0  0  0  0  0  0
    4.3804    1.2994    0.0629 C   0  0  0  0  0  0  0  0  0  0  0  0
    5.5009    2.1720    0.5978 C   0  0  0  0  0  0  0  0  0  0  0  0
    6.3278    1.4158    1.5934 C   0  0  0  0  0  0  0  0  0  0  0  0
    5.5310    1.0112    2.7307 N   0  0  0  0  0  4  0  0  0  0  0  0
    4.3207   -2.1712   -1.4020 C   0  0  0  0  0  0  0  0  0  0  0  0
    4.8014   -0.6087   -1.1212 C   0  0  2  0  0  0  0  0  0  0  0  0
    6.0328   -1.0979   -0.0956 C   0  0  0  0  0  0  0  0  0  0  0  0
    6.6180    0.1802    0.2889 N   0  0  0  0  0  0  0  0  0  0  0  0
    7.5914    0.7541   -0.3702 N   0  0  0  0  0  0  0  0  0  0  0  0
    7.8932    1.9281    0.2588 C   0  0  0  0  0  0  0  0  0  0  0  0
    7.0674    2.0340    1.3139 N   0  0  0  0  0  0  0  0  0  0  0  0
    6.3225    0.9599    1.2870 N   0  0  0  0  0  0  0  0  0  0  0  0
    3.7889   -0.4193    0.0798 N   0  0  0  0  0  0  0  0  0  0  0  0
    2.4513   -0.5934   -0.3333 C   0  0  0  0  0  0  0  0  0  0  0  0
    2.0812   -0.8847   -1.5938 N   0  0  0  0  0  0  0  0  0  0  0  0
    0.8152   -1.0435   -1.9564 C   0  0  0  0  0  0  0  0  0  0  0  0
   -0.1683   -0.9086   -1.0207 C   0  0  0  0  0  0  0  0  0  0  0  0
   -1.5280   -1.0606   -1.3230 C   0  0  0  0  0  0  0  0  0  0  0  0
   -2.4804   -0.9152   -0.3473 C   0  0  0  0  0  0  0  0  0  0  0  0
   -3.7938   -1.0652   -0.6544 O   0  0  0  0  0  0  0  0  0  0  0  0
   -4.6982   -0.0115   -0.4582 C   0  0  0  0  0  0  0  0  0  0  0  0
   -4.2742    1.2033    0.0519 C   0  0  0  0  0  0  0  0  0  0  0  0
   -5.1562    2.2266    0.2418 C   0  0  0  0  0  0  0  0  0  0  0  0
   -6.4782    2.0294   -0.0836 C   0  0  0  0  0  0  0  0  0  0  0  0
   -7.3528    3.0416    0.1037 F   0  0  0  0  0  0  0  0  0  0  0  0
   -6.8989    0.8232   -0.5900 C   0  0  0  0  0  0  0  0  0  0  0  0
   -6.0032   -0.2174   -0.7833 C   0  0  0  0  0  0  0  0  0  0  0  0
   -6.4178   -1.3958   -1.2788 F   0  0  0  0  0  0  0  0  0  0  0  0
   -2.0899   -0.6189    0.9301 C   0  0  0  0  0  0  0  0  0  0  0  0
   -2.9516   -0.4799    1.8482 O   0  0  0  0  0  0  0  0  0  0  0  0
   -0.7832   -0.4642    1.2616 N   0  0  0  0  0  0  0  0  0  0  0  0
   -0.3235   -0.1525    2.5903 C   0  0  0  0  0  0  0  0  0  0  0  0
    0.1577   -0.6103    0.2859 C   0  0  0  0  0  0  0  0  0  0  0  0
    1.4563   -0.4617    0.5909 N   0  0  0  0  0  0  0  0  0  0  0  0
  2  1  1  6
  2  3  1  0
  2  4  1  0
  4  5  1  0
  5  6  1  0
  6  7  2  0
  6  8  1  0
  8  9  1  6
  9 10  1  0
 10 11  1  0
 11 12  1  0
 12 13  1  0
 13 14  1  0
 13 15  2  0
  8 16  1  0
 16 17  1  0
 17 18  2  0
 17 19  1  0
 19 20  1  0
 20 21  1  0
 21 22  1  0
 22 23  1  0
 23 24  1  0
 26 25  1  6
 26 27  1  0
 27 28  1  0
 28 29  1  0
 29 30  2  0
 30 31  1  0
 31 32  2  0
 26 33  1  0
 33 34  1  0
 34 35  2  0
 35 36  1  0
 36 37  2  0
 37 38  1  0
 38 39  2  0
 39 40  1  0
 40 41  1  0
 41 42  2  0
 42 43  1  0
 43 44  2  0
 44 45  1  0
 44 46  1  0
 46 47  2  0
 47 48  1  0
 39 49  1  0
 49 50  2  0
 49 51  1  0
 51 52  1  0
 51 53  1  0
 53 54  2  0
 32 28  1  0
 54 34  1  0
 53 37  1  0
 47 41  1  0
M  CHG  2  15   1  24   1
M  END

