
     RDKit          3D

 44 46  0  0  0  0  0  0  0  0999 V2000
   -3.4451   -1.4244    1.0241 C   0  0  0  0  0  0  0  0  0  0  0  0
   -3.1056   -0.0580    1.5498 C   0  0  0  0  0  0  0  0  0  0  0  0
   -2.1201   -0.1037    2.6734 C   0  0  0  0  0  0  0  0  0  0  0  0
   -2.7389    0.8795    0.4629 C   0  0  0  0  0  0  0  0  0  0  0  0
   -1.5420    0.4100   -0.3202 C   0  0  0  0  0  0  0  0  0  0  0  0
   -0.9430   -0.6575   -0.0599 O   0  0  0  0  0  0  0  0  0  0  0  0
   -1.0266    1.1666   -1.4084 N   0  0  0  0  0  0  0  0  0  0  0  0
    0.1053    0.7845   -2.1973 C   0  0  0  0  0  0  0  0  0  0  0  0
    1.3523    0.6457   -1.3909 C   0  0  0  0  0  0  0  0  0  0  0  0
    2.3778    0.3130   -2.0253 O   0  0  0  0  0  0  0  0  0  0  0  0
    1.4537    0.8524   -0.0308 N   0  0  0  0  0  0  0  0  0  0  0  0
    2.4816    0.7768    0.9018 C   0  0  0  0  0  0  0  0  0  0  0  0
    3.1726   -0.5090    1.1537 C   0  0  0  0  0  0  0  0  0  0  0  0
    3.9780   -1.1095   -0.3330 S   0  0  0  0  0  0  0  0  0  0  0  0
    4.4052   -0.0476    2.1916 C   0  0  0  0  0  0  0  0  0  0  0  0
    5.1025   -0.2402    0.7347 C   0  0  2  0  0  0  0  0  0  0  0  0
    4.0363    0.7050   -0.0364 C   0  0  0  0  0  0  0  0  0  0  0  0
    4.5060    0.6603   -1.4091 N   0  0  0  0  0  0  0  0  0  0  0  0
    4.1755   -0.1803   -2.3587 N   0  0  0  0  0  0  0  0  0  0  0  0
    4.8581    0.1596   -3.4644 C   0  0  0  0  0  0  0  0  0  0  0  0
    5.6065    1.2272   -3.1500 N   0  0  0  0  0  0  0  0  0  0  0  0
    5.3823    1.5234   -1.8908 N   0  0  0  0  0  0  0  0  0  0  0  0
    4.3978   -1.5650    0.3942 N   0  0  0  0  0  0  0  0  0  0  0  0
    3.0053   -1.6719    0.3988 C   0  0  0  0  0  0  0  0  0  0  0  0
    2.3134   -2.7652    0.1164 N   0  0  0  0  0  0  0  0  0  0  0  0
    0.9744   -2.7742    0.1527 C   0  0  0  0  0  0  0  0  0  0  0  0
    0.2661   -1.6324    0.4891 C   0  0  0  0  0  0  0  0  0  0  0  0
   -1.0747   -1.5809    0.5419 C   0  0  0  0  0  0  0  0  0  0  0  0
   -1.7678   -0.3837    0.8931 C   0  0  0  0  0  0  0  0  0  0  0  0
   -3.0680   -0.4938    0.9015 O   0  0  0  0  0  0  0  0  0  0  0  0
   -4.2459   -0.1291    0.4113 C   0  0  0  0  0  0  0  0  0  0  0  0
   -5.0229   -1.1359   -0.2527 C   0  0  0  0  0  0  0  0  0  0  0  0
   -6.2402   -0.8928   -0.7957 C   0  0  0  0  0  0  0  0  0  0  0  0
   -6.8011    0.3545   -0.7358 C   0  0  0  0  0  0  0  0  0  0  0  0
   -8.0127    0.6491   -1.2646 F   0  0  0  0  0  0  0  0  0  0  0  0
   -6.1102    1.3602   -0.1143 C   0  0  0  0  0  0  0  0  0  0  0  0
   -4.8457    1.0943    0.4467 C   0  0  0  0  0  0  0  0  0  0  0  0
   -4.2055    2.1229    1.0784 F   0  0  0  0  0  0  0  0  0  0  0  0
   -1.0020    0.7077    1.1737 C   0  0  0  0  0  0  0  0  0  0  0  0
   -1.4668    1.8399    1.5030 O   0  0  0  0  0  0  0  0  0  0  0  0
    0.3648    0.6508    1.1182 N   0  0  0  0  0  0  0  0  0  0  0  0
    1.1690    1.8197    1.4185 C   0  0  0  0  0  0  0  0  0  0  0  0
    0.9827   -0.4893    0.7846 C   0  0  0  0  0  0  0  0  0  0  0  0
    2.3177   -0.5675    0.7243 N   0  0  0  0  0  0  0  0  0  0  0  0
  1  2  1  0
  2  3  1  0
  2  4  1  0
  4  5  1  0
  5  6  2  0
  5  7  1  0
  7  8  1  0
  8  9  1  0
  9 10  2  0
  9 11  1  0
 11 12  1  0
 12 13  1  0
 13 14  1  0
 16 15  1  1
 16 17  1  0
 17 18  1  0
 18 19  1  0
 19 20  2  0
 20 21  1  0
 21 22  2  0
 16 23  1  0
 23 24  1  0
 24 25  2  0
 25 26  1  0
 26 27  2  0
 27 28  1  0
 28 29  2  0
 29 30  1  0
 30 31  1  0
 31 32  2  0
 32 33  1  0
 33 34  2  0
 34 35  1  0
 34 36  1  0
 36 37  2  0
 37 38  1  0
 29 39  1  0
 39 40  2  0
 39 41  1  0
 41 42  1  0
 41 43  1  0
 43 44  2  0
 22 18  1  0
 44 24  1  0
 43 27  1  0
 37 31  1  0
M  END

