
     RDKit          3D

 56 59  0  0  0  0  0  0  0  0999 V2000
   -4.8798   -1.0585   -4.3631 C   0  0  0  0  0  0  0  0  0  0  0  0
   -3.9630   -2.2060   -4.0353 C   0  0  0  0  0  0  0  0  0  0  0  0
   -2.6870   -2.0116   -5.0769 C   0  0  2  0  0  0  0  0  0  0  0  0
   -1.9192   -3.3342   -4.5021 C   0  0  0  0  0  0  0  0  0  0  0  0
   -1.9382   -0.9477   -4.0899 C   0  0  0  0  0  0  0  0  0  0  0  0
   -1.6812   -1.6026   -2.8464 N   0  0  0  0  0  0  0  0  0  0  0  0
   -1.0401   -0.8196   -1.8806 C   0  0  0  0  0  0  0  0  0  0  0  0
   -0.7289    0.3140   -2.1034 O   0  0  0  0  0  0  0  0  0  0  0  0
   -0.7511   -1.5382   -0.4706 C   0  0  2  0  0  0  0  0  0  0  0  0
   -1.7303   -0.5097    0.3893 C   0  0  0  0  0  0  0  0  0  0  0  0
   -3.0945   -0.6317   -0.1770 C   0  0  0  0  0  0  0  0  0  0  0  0
   -3.6776   -1.9882   -0.0910 C   0  0  0  0  0  0  0  0  0  0  0  0
   -5.0041   -2.1807   -0.5734 N   0  0  0  0  0  0  0  0  0  0  0  0
   -2.9797   -2.9144    0.4026 O   0  0  0  0  0  0  0  0  0  0  0  0
    0.6049   -0.7665   -0.1740 N   0  0  0  0  0  0  0  0  0  0  0  0
    0.7874   -0.1297    1.0309 C   0  0  0  0  0  0  0  0  0  0  0  0
   -0.1857   -0.2204    1.8241 O   0  0  0  0  0  0  0  0  0  0  0  0
    2.0389    0.6160    1.3789 C   0  0  0  0  0  0  0  0  0  0  0  0
    1.8102    1.1906    2.7557 C   0  0  0  0  0  0  0  0  0  0  0  0
    3.0152    1.9431    3.1531 C   0  0  0  0  0  0  0  0  0  0  0  0
    3.0900    3.2821    2.8105 C   0  0  0  0  0  0  0  0  0  0  0  0
    4.1815    4.0628    3.1709 C   0  0  0  0  0  0  0  0  0  0  0  0
    5.2061    3.5152    3.8743 C   0  0  0  0  0  0  0  0  0  0  0  0
    6.2854    4.3229    4.2212 O   0  0  0  0  0  0  0  0  0  0  0  0
    5.1696    2.1804    4.2355 C   0  0  0  0  0  0  0  0  0  0  0  0
    4.0714    1.4324    3.8627 C   0  0  0  0  0  0  0  0  0  0  0  0
    4.4938    1.7688   -0.2265 C   0  0  0  0  0  0  0  0  0  0  0  0
    5.0622    0.6894    0.9017 C   0  0  2  0  0  0  0  0  0  0  0  0
    4.7998   -0.6224   -0.0770 C   0  0  0  0  0  0  0  0  0  0  0  0
    5.6548   -0.2634   -1.1973 N   0  0  0  0  0  0  0  0  0  0  0  0
    5.3690    0.4286   -2.2853 N   0  0  0  0  0  0  0  0  0  0  0  0
    6.4731    0.5265   -3.0735 C   0  0  0  0  0  0  0  0  0  0  0  0
    7.4425   -0.1352   -2.4190 N   0  0  0  0  0  0  0  0  0  0  0  0
    6.9366   -0.6074   -1.2880 N   0  0  0  0  0  0  0  0  0  0  0  0
    3.6898    0.5801    1.6642 N   0  0  0  0  0  0  0  0  0  0  0  0
    2.5555    0.1678    0.9901 C   0  0  0  0  0  0  0  0  0  0  0  0
    2.4703   -0.1714   -0.3090 N   0  0  0  0  0  0  0  0  0  0  0  0
    1.3156   -0.5627   -0.8802 C   0  0  0  0  0  0  0  0  0  0  0  0
    0.1593   -0.6287   -0.1324 C   0  0  0  0  0  0  0  0  0  0  0  0
   -1.0553   -1.0206   -0.6536 C   0  0  0  0  0  0  0  0  0  0  0  0
   -2.1581   -1.0550    0.1753 C   0  0  0  0  0  0  0  0  0  0  0  0
   -3.3976   -1.4456   -0.3189 O   0  0  0  0  0  0  0  0  0  0  0  0
   -4.5031   -0.6307   -0.2983 C   0  0  0  0  0  0  0  0  0  0  0  0
   -5.6742   -0.9537    0.3641 C   0  0  0  0  0  0  0  0  0  0  0  0
   -6.7734   -0.1310    0.3778 C   0  0  0  0  0  0  0  0  0  0  0  0
   -6.7339    1.0835   -0.2944 C   0  0  0  0  0  0  0  0  0  0  0  0
   -7.8182    1.9194   -0.2939 F   0  0  0  0  0  0  0  0  0  0  0  0
   -5.5784    1.4207   -0.9579 C   0  0  0  0  0  0  0  0  0  0  0  0
   -4.4832    0.5831   -0.9620 C   0  0  0  0  0  0  0  0  0  0  0  0
   -3.3539    0.9357   -1.6230 F   0  0  0  0  0  0  0  0  0  0  0  0
   -2.0230   -0.6970    1.5064 C   0  0  0  0  0  0  0  0  0  0  0  0
   -3.0358   -0.7368    2.2341 O   0  0  0  0  0  0  0  0  0  0  0  0
   -0.8502   -0.3222    1.9950 N   0  0  0  0  0  0  0  0  0  0  0  0
   -0.6649    0.0617    3.3873 C   0  0  0  0  0  0  0  0  0  0  0  0
    0.2582   -0.2787    1.1984 C   0  0  0  0  0  0  0  0  0  0  0  0
    1.4228    0.0975    1.6994 N   0  0  0  0  0  0  0  0  0  0  0  0
  1  2  1  0
  2  3  1  0
  3  4  1  1
  3  5  1  0
  5  6  1  0
  6  7  1  0
  7  8  2  0
  7  9  1  0
  9 10  1  1
 10 11  1  0
 11 12  1  0
 12 13  1  0
 12 14  2  0
  9 15  1  0
 15 16  1  0
 16 17  2  0
 16 18  1  0
 18 19  1  0
 19 20  1  0
 20 21  2  0
 21 22  1  0
 22 23  2  0
 23 24  1  0
 23 25  1  0
 25 26  2  0
 28 27  1  6
 28 29  1  0
 29 30  1  0
 30 31  1  0
 31 32  2  0
 32 33  1  0
 33 34  2  0
 28 35  1  0
 35 36  1  0
 36 37  2  0
 37 38  1  0
 38 39  2  0
 39 40  1  0
 40 41  2  0
 41 42  1  0
 42 43  1  0
 43 44  2  0
 44 45  1  0
 45 46  2  0
 46 47  1  0
 46 48  1  0
 48 49  2  0
 49 50  1  0
 41 51  1  0
 51 52  2  0
 51 53  1  0
 53 54  1  0
 53 55  1  0
 55 56  2  0
 26 20  1  0
 34 30  1  0
 56 36  1  0
 55 39  1  0
 49 43  1  0
M  END

