
     RDKit          3D

 59 63  0  0  0  0  0  0  0  0999 V2000
    4.0529   -0.4163    1.4954 C   0  0  0  0  0  0  0  0  0  0  0  0
    4.5674   -1.8109    0.8009 C   0  0  2  0  0  0  0  0  0  0  0  0
    6.1046   -1.2985    0.6018 C   0  0  0  0  0  0  0  0  0  0  0  0
    6.1074   -0.1398   -0.2181 N   0  0  0  0  0  0  0  0  0  0  0  0
    6.1992   -0.0837   -1.5304 N   0  0  0  0  0  0  0  0  0  0  0  0
    6.1650    1.2030   -1.9225 C   0  0  0  0  0  0  0  0  0  0  0  0
    6.0494    1.9532   -0.8245 N   0  0  0  0  0  0  0  0  0  0  0  0
    6.0166    1.1130    0.1972 N   0  0  0  0  0  0  0  0  0  0  0  0
    4.0957   -1.4085   -0.6344 N   0  0  0  0  0  0  0  0  0  0  0  0
    2.6867   -1.1667   -0.7081 C   0  0  0  0  0  0  0  0  0  0  0  0
    2.1866   -0.8106   -1.9202 N   0  0  0  0  0  0  0  0  0  0  0  0
    0.8727   -0.5705   -2.0530 C   0  0  0  0  0  0  0  0  0  0  0  0
    0.0004   -0.6782   -0.9695 C   0  0  0  0  0  0  0  0  0  0  0  0
   -1.3278   -0.4370   -1.0935 C   0  0  0  0  0  0  0  0  0  0  0  0
   -2.2437   -0.5393    0.0003 C   0  0  0  0  0  0  0  0  0  0  0  0
   -3.4860   -0.2630   -0.3403 O   0  0  0  0  0  0  0  0  0  0  0  0
   -4.5154    0.5530   -0.1484 C   0  0  0  0  0  0  0  0  0  0  0  0
   -4.9122    1.3171   -1.2872 C   0  0  0  0  0  0  0  0  0  0  0  0
   -5.9482    2.1856   -1.2215 C   0  0  0  0  0  0  0  0  0  0  0  0
   -6.6926    2.4052   -0.0838 C   0  0  0  0  0  0  0  0  0  0  0  0
   -7.7193    3.2852   -0.0628 F   0  0  0  0  0  0  0  0  0  0  0  0
   -6.3182    1.6746    1.0137 C   0  0  0  0  0  0  0  0  0  0  0  0
   -5.2553    0.7692    0.9836 C   0  0  0  0  0  0  0  0  0  0  0  0
   -4.9603    0.0624    2.1112 F   0  0  0  0  0  0  0  0  0  0  0  0
   -1.6537   -0.9014    1.1707 C   0  0  0  0  0  0  0  0  0  0  0  0
   -2.3635   -1.0243    2.1965 O   0  0  0  0  0  0  0  0  0  0  0  0
   -0.3122   -1.1397    1.2745 N   0  0  0  0  0  0  0  0  0  0  0  0
    0.2182   -1.5190    2.5652 C   0  0  0  0  0  0  0  0  0  0  0  0
    0.5327   -1.0412    0.2504 C   0  0  0  0  0  0  0  0  0  0  0  0
    1.8530   -1.2729    0.3421 N   0  0  0  0  0  0  0  0  0  0  0  0
   -6.5437   -1.7871    3.3467 N   0  0  0  0  0  4  0  0  0  0  0  0
   -5.3797   -2.2534    2.5857 C   0  0  0  0  0  0  0  0  0  0  0  0
   -5.8462   -2.7225    1.2356 C   0  0  0  0  0  0  0  0  0  0  0  0
   -4.7182   -3.2136    0.3962 C   0  0  0  0  0  0  0  0  0  0  0  0
   -3.6958   -2.1517    0.1686 C   0  0  0  0  0  0  0  0  0  0  0  0
   -3.0776   -1.6997    1.5014 C   0  0  0  0  0  0  0  0  0  0  0  0
   -2.1076   -0.6597    1.2115 N   0  0  0  0  0  0  0  0  0  0  0  0
   -1.0330   -0.9170    0.3427 C   0  0  0  0  0  0  0  0  0  0  0  0
   -0.8231   -1.9799   -0.2314 O   0  0  0  0  0  0  0  0  0  0  0  0
   -0.0251    0.2818    0.0970 C   0  0  2  0  0  0  0  0  0  0  0  0
   -1.0644    1.1781   -0.7856 C   0  0  0  0  0  0  0  0  0  0  0  0
   -0.2993    2.4085   -1.1146 C   0  0  0  0  0  0  0  0  0  0  0  0
    0.2507    2.7511   -2.2944 C   0  0  0  0  0  0  0  0  0  0  0  0
    0.8586    3.9508   -2.2199 N   0  0  0  0  0  0  0  0  0  0  0  0
    0.7018    4.4138   -0.9461 C   0  0  0  0  0  0  0  0  0  0  0  0
    1.1125    5.5763   -0.2993 C   0  0  0  0  0  0  0  0  0  0  0  0
    0.8150    5.8021    1.0404 C   0  0  0  0  0  0  0  0  0  0  0  0
    0.0971    4.8379    1.7113 C   0  0  0  0  0  0  0  0  0  0  0  0
   -0.3034    3.6873    1.0510 C   0  0  0  0  0  0  0  0  0  0  0  0
   -0.0074    3.4734   -0.2578 C   0  0  0  0  0  0  0  0  0  0  0  0
    0.7464   -0.3293   -1.1134 N   0  0  0  0  0  0  0  0  0  0  0  0
    1.6593   -1.3617   -0.9339 C   0  0  0  0  0  0  0  0  0  0  0  0
    1.8792   -1.8005    0.1978 O   0  0  0  0  0  0  0  0  0  0  0  0
    2.3451   -1.9043   -2.1345 C   0  0  0  0  0  0  0  0  0  0  0  0
    3.3170   -2.9618   -1.6693 C   0  0  0  0  0  0  0  0  0  0  0  0
    4.2868   -2.2585   -0.7482 C   0  0  0  0  0  0  0  0  0  0  0  0
    5.3121   -3.1780   -0.2070 C   0  0  0  0  0  0  0  0  0  0  0  0
    6.3051   -2.7890    0.6513 O   0  0  0  0  0  1  0  0  0  0  0  0
    5.2377   -4.3932   -0.5818 O   0  0  0  0  0  0  0  0  0  0  0  0
  2  1  1  1
  2  3  1  0
  3  4  1  0
  4  5  1  0
  5  6  2  0
  6  7  1  0
  7  8  2  0
  2  9  1  0
  9 10  1  0
 10 11  2  0
 11 12  1  0
 12 13  2  0
 13 14  1  0
 14 15  2  0
 15 16  1  0
 16 17  1  0
 17 18  2  0
 18 19  1  0
 19 20  2  0
 20 21  1  0
 20 22  1  0
 22 23  2  0
 23 24  1  0
 15 25  1  0
 25 26  2  0
 25 27  1  0
 27 28  1  0
 27 29  1  0
 29 30  2  0
 31 32  1  0
 32 33  1  0
 33 34  1  0
 34 35  1  0
 35 36  1  0
 36 37  1  0
 37 38  1  0
 38 39  2  0
 38 40  1  0
 40 41  1  6
 41 42  1  0
 42 43  2  0
 43 44  1  0
 44 45  1  0
 45 46  2  0
 46 47  1  0
 47 48  2  0
 48 49  1  0
 49 50  2  0
 40 51  1  0
 51 52  1  0
 52 53  2  0
 52 54  1  0
 54 55  1  0
 55 56  1  0
 56 57  1  0
 57 58  1  0
 57 59  2  0
  8  4  1  0
 30 10  1  0
 50 42  1  0
 29 13  1  0
 50 45  1  0
 23 17  1  0
M  CHG  1  31   1
M  RAD  1  58   2
M  END

