
     RDKit          3D

 52 54  0  0  0  0  0  0  0  0999 V2000
   -5.3746    2.6840   -1.0327 C   0  0  0  0  0  0  0  0  0  0  0  0
   -5.4365    1.4929   -0.0974 C   0  0  0  0  0  0  0  0  0  0  0  0
   -6.8942    1.3492    0.2984 C   0  0  0  0  0  0  0  0  0  0  0  0
   -4.9710    0.2233   -0.6901 C   0  0  0  0  0  0  0  0  0  0  0  0
   -3.5785    0.1690   -1.1729 C   0  0  0  0  0  0  0  0  0  0  0  0
   -2.5652    0.4276   -0.1134 C   0  0  0  0  0  0  0  0  0  0  0  0
   -2.9047    0.6770    1.0723 O   0  0  0  0  0  0  0  0  0  0  0  0
   -1.1794    0.4041   -0.3922 N   0  0  0  0  0  0  0  0  0  0  0  0
   -0.2319    0.6894    0.7998 C   0  0  1  0  0  0  0  0  0  0  0  0
   -0.7883   -0.5410    1.7085 C   0  0  0  0  0  0  0  0  0  0  0  0
   -0.6077   -1.8036    1.0635 C   0  0  0  0  0  0  0  0  0  0  0  0
   -1.2068   -2.1157   -0.2199 C   0  0  0  0  0  0  0  0  0  0  0  0
   -0.0995   -2.9364    1.8871 C   0  0  0  0  0  0  0  0  0  0  0  0
    1.0390   -0.0459    0.2434 C   0  0  0  0  0  0  0  0  0  0  0  0
    0.9878   -0.5791   -0.8464 O   0  0  0  0  0  0  0  0  0  0  0  0
    2.1945   -0.0421    1.0675 N   0  0  0  0  0  0  0  0  0  0  0  0
    3.3816   -0.7066    0.5950 C   0  0  0  0  0  0  0  0  0  0  0  0
    3.8112   -0.0521   -0.6983 C   0  0  0  0  0  0  0  0  0  0  0  0
    5.0688   -0.8025   -1.1440 C   0  0  0  0  0  0  0  0  0  0  0  0
    6.0999   -0.6457   -0.0529 C   0  0  0  0  0  0  0  0  0  0  0  0
    6.3786    0.8256    0.1193 C   0  0  0  0  0  0  0  0  0  0  0  0
    6.8770    1.3287   -1.1391 N   0  0  0  0  0  4  0  0  0  0  0  0
    2.8803    2.2669    0.4107 C   0  0  0  0  0  0  0  0  0  0  0  0
    4.0485    1.1463    0.8001 C   0  0  2  0  0  0  0  0  0  0  0  0
    5.2210    1.9851   -0.0652 C   0  0  0  0  0  0  0  0  0  0  0  0
    6.4089    1.1583    0.1307 N   0  0  0  0  0  0  0  0  0  0  0  0
    7.2547    1.3151    1.1219 N   0  0  0  0  0  0  0  0  0  0  0  0
    8.2224    0.4131    1.0205 C   0  0  0  0  0  0  0  0  0  0  0  0
    7.9567   -0.3222   -0.0746 N   0  0  0  0  0  0  0  0  0  0  0  0
    6.8520    0.1543   -0.5909 N   0  0  0  0  0  0  0  0  0  0  0  0
    3.6969    0.2331   -0.4527 N   0  0  0  0  0  0  0  0  0  0  0  0
    2.3479   -0.2276   -0.4325 C   0  0  0  0  0  0  0  0  0  0  0  0
    1.9766   -1.0066   -1.4614 N   0  0  0  0  0  0  0  0  0  0  0  0
    0.7491   -1.5223   -1.5962 C   0  0  0  0  0  0  0  0  0  0  0  0
   -0.1691   -1.2213   -0.6074 C   0  0  0  0  0  0  0  0  0  0  0  0
   -1.4409   -1.7254   -0.6988 C   0  0  0  0  0  0  0  0  0  0  0  0
   -2.3531   -1.4175    0.2975 C   0  0  0  0  0  0  0  0  0  0  0  0
   -3.6639   -1.9008    0.2607 O   0  0  0  0  0  0  0  0  0  0  0  0
   -4.7155   -0.9753    0.2269 C   0  0  0  0  0  0  0  0  0  0  0  0
   -5.6532   -0.9555    1.2174 C   0  0  0  0  0  0  0  0  0  0  0  0
   -6.6901   -0.0190    1.1538 C   0  0  0  0  0  0  0  0  0  0  0  0
   -6.7816    0.8814    0.1119 C   0  0  0  0  0  0  0  0  0  0  0  0
   -7.7779    1.8050    0.0206 F   0  0  0  0  0  0  0  0  0  0  0  0
   -5.8022    0.8185   -0.8694 C   0  0  0  0  0  0  0  0  0  0  0  0
   -4.7739   -0.0860   -0.8369 C   0  0  0  0  0  0  0  0  0  0  0  0
   -3.8211   -0.1206   -1.8250 F   0  0  0  0  0  0  0  0  0  0  0  0
   -1.9244   -0.6196    1.3245 C   0  0  0  0  0  0  0  0  0  0  0  0
   -2.7383   -0.3147    2.2613 O   0  0  0  0  0  0  0  0  0  0  0  0
   -0.6882   -0.1170    1.4334 N   0  0  0  0  0  0  0  0  0  0  0  0
   -0.2827    0.7345    2.5583 C   0  0  0  0  0  0  0  0  0  0  0  0
    0.1984   -0.4230    0.4543 C   0  0  0  0  0  0  0  0  0  0  0  0
    1.4625    0.0627    0.5210 N   0  0  0  0  0  0  0  0  0  0  0  0
  1  2  1  0
  2  3  1  0
  2  4  1  0
  4  5  1  0
  5  6  1  0
  6  7  2  0
  6  8  1  0
  8  9  1  0
  9 10  1  1
 10 11  1  0
 11 12  1  0
 11 13  1  0
  9 14  1  0
 14 15  2  0
 14 16  1  0
 16 17  1  0
 17 18  1  0
 18 19  1  0
 19 20  1  0
 20 21  1  0
 21 22  1  0
 24 23  1  6
 24 25  1  0
 25 26  1  0
 26 27  1  0
 27 28  2  0
 28 29  1  0
 29 30  2  0
 24 31  1  0
 31 32  1  0
 32 33  2  0
 33 34  1  0
 34 35  2  0
 35 36  1  0
 36 37  2  0
 37 38  1  0
 38 39  1  0
 39 40  2  0
 40 41  1  0
 41 42  2  0
 42 43  1  0
 42 44  1  0
 44 45  2  0
 45 46  1  0
 37 47  1  0
 47 48  2  0
 47 49  1  0
 49 50  1  0
 49 51  1  0
 51 52  2  0
 30 26  1  0
 52 32  1  0
 51 35  1  0
 45 39  1  0
M  CHG  1  22   1
M  END

