
     RDKit          3D

 53 56  0  0  0  0  0  0  0  0999 V2000
    3.8088   -3.0225   -1.3102 C   0  0  0  0  0  0  0  0  0  0  0  0
    4.8284   -1.7287   -1.1298 C   0  0  2  0  0  0  0  0  0  0  0  0
    4.5580   -1.5953    0.4936 C   0  0  0  0  0  0  0  0  0  0  0  0
    5.4108   -0.4527    0.8568 N   0  0  0  0  0  0  0  0  0  0  0  0
    5.0708    0.8284    0.8664 N   0  0  0  0  0  0  0  0  0  0  0  0
    6.1360    1.5518    1.2575 C   0  0  0  0  0  0  0  0  0  0  0  0
    7.1235    0.6727    1.4825 N   0  0  0  0  0  0  0  0  0  0  0  0
    6.6680   -0.5264    1.2361 N   0  0  0  0  0  0  0  0  0  0  0  0
    3.7595   -0.6564   -1.5417 N   0  0  0  0  0  0  0  0  0  0  0  0
    2.5530   -0.5711   -0.8597 C   0  0  0  0  0  0  0  0  0  0  0  0
    2.3134   -1.4217    0.1551 N   0  0  0  0  0  0  0  0  0  0  0  0
    1.1661   -1.3898    0.8538 C   0  0  0  0  0  0  0  0  0  0  0  0
    0.1981   -0.4629    0.5311 C   0  0  0  0  0  0  0  0  0  0  0  0
   -1.0066   -0.3533    1.1876 C   0  0  0  0  0  0  0  0  0  0  0  0
   -1.9556    0.5987    0.8274 C   0  0  0  0  0  0  0  0  0  0  0  0
   -3.1600    0.6781    1.5144 O   0  0  0  0  0  0  0  0  0  0  0  0
   -4.3496    0.4978    0.8403 C   0  0  0  0  0  0  0  0  0  0  0  0
   -5.3211    1.4528    0.7781 C   0  0  0  0  0  0  0  0  0  0  0  0
   -6.5014    1.2534    0.1001 C   0  0  0  0  0  0  0  0  0  0  0  0
   -6.7537    0.0535   -0.5574 C   0  0  0  0  0  0  0  0  0  0  0  0
   -7.9213   -0.1387   -1.2258 F   0  0  0  0  0  0  0  0  0  0  0  0
   -5.7790   -0.9130   -0.4987 C   0  0  0  0  0  0  0  0  0  0  0  0
   -4.5967   -0.7027    0.1851 C   0  0  0  0  0  0  0  0  0  0  0  0
   -3.6462   -1.6667    0.2328 F   0  0  0  0  0  0  0  0  0  0  0  0
   -1.6249    1.4284   -0.2241 C   0  0  0  0  0  0  0  0  0  0  0  0
   -2.4515    2.2996   -0.5803 O   0  0  0  0  0  0  0  0  0  0  0  0
   -0.4422    1.3142   -0.8620 N   0  0  0  0  0  0  0  0  0  0  0  0
   -0.1898    2.2298   -1.9507 C   0  0  0  0  0  0  0  0  0  0  0  0
    0.4774    0.3965   -0.5178 C   0  0  0  0  0  0  0  0  0  0  0  0
    1.6281    0.3464   -1.2002 N   0  0  0  0  0  0  0  0  0  0  0  0
    5.5532    0.2137    2.3987 N   0  0  0  0  0  0  0  0  0  0  0  0
    6.0967    0.3544    1.0532 C   0  0  0  0  0  0  0  0  0  0  0  0
    6.8517    1.3447    0.7527 O   0  0  0  0  0  0  0  0  0  0  0  0
    5.7880   -0.6587    0.0069 C   0  0  0  0  0  0  0  0  0  0  0  0
    5.3678    0.2034   -1.2063 C   0  0  0  0  0  0  0  0  0  0  0  0
    3.9956    0.8381   -0.8410 C   0  0  0  0  0  0  0  0  0  0  0  0
    3.0419   -0.3353   -0.8291 C   0  0  0  0  0  0  0  0  0  0  0  0
    3.4730   -1.4812   -0.9597 O   0  0  0  0  0  0  0  0  0  0  0  0
    1.6347   -0.1085   -0.6785 N   0  0  0  0  0  0  0  0  0  0  0  0
    0.7221   -1.3667   -0.7766 C   0  0  1  0  0  0  0  0  0  0  0  0
    1.2592   -2.0100    0.6150 C   0  0  0  0  0  0  0  0  0  0  0  0
    1.0222   -1.1681    1.6409 O   0  0  0  0  0  0  0  0  0  0  0  0
   -0.6064   -0.7072   -0.1797 C   0  0  0  0  0  0  0  0  0  0  0  0
   -0.9910   -1.0315    0.9365 O   0  0  0  0  0  0  0  0  0  0  0  0
   -1.2169    0.2458   -1.0583 N   0  0  0  0  0  0  0  0  0  0  0  0
   -2.4481    0.8925   -0.5629 C   0  0  0  0  0  0  0  0  0  0  0  0
   -3.4819   -0.1963   -0.6146 C   0  0  0  0  0  0  0  0  0  0  0  0
   -4.7776    0.3647   -0.1475 C   0  0  0  0  0  0  0  0  0  0  0  0
   -5.2848    1.4047   -0.8847 C   0  0  0  0  0  0  0  0  0  0  0  0
   -6.5502    1.8887   -0.5409 C   0  0  0  0  0  0  0  0  0  0  0  0
   -7.2235    1.2798    0.5196 C   0  0  0  0  0  0  0  0  0  0  0  0
   -6.7369    0.2575    1.2425 C   0  0  0  0  0  0  0  0  0  0  0  0
   -5.4885   -0.2243    0.9203 C   0  0  0  0  0  0  0  0  0  0  0  0
  2  1  1  6
  2  3  1  0
  3  4  1  0
  4  5  1  0
  5  6  2  0
  6  7  1  0
  7  8  2  0
  2  9  1  0
  9 10  1  0
 10 11  2  0
 11 12  1  0
 12 13  2  0
 13 14  1  0
 14 15  2  0
 15 16  1  0
 16 17  1  0
 17 18  2  0
 18 19  1  0
 19 20  2  0
 20 21  1  0
 20 22  1  0
 22 23  2  0
 23 24  1  0
 15 25  1  0
 25 26  2  0
 25 27  1  0
 27 28  1  0
 27 29  1  0
 29 30  2  0
 31 32  1  0
 32 33  2  0
 32 34  1  0
 34 35  1  0
 35 36  1  0
 36 37  1  0
 37 38  2  0
 37 39  1  0
 39 40  1  0
 40 41  1  1
 41 42  1  0
 40 43  1  0
 43 44  2  0
 43 45  1  0
 45 46  1  0
 46 47  1  0
 47 48  1  0
 48 49  2  0
 49 50  1  0
 50 51  2  0
 51 52  1  0
 52 53  2  0
  8  4  1  0
 30 10  1  0
 53 48  1  0
 29 13  1  0
 23 17  1  0
M  END

