
     RDKit          3D

 51 53  0  0  0  0  0  0  0  0999 V2000
    5.8821   -0.9785   -3.7033 C   0  0  0  0  0  0  0  0  0  0  0  0
    4.7756   -1.5331   -2.4044 S   0  0  0  0  0  0  0  0  0  0  0  0
    5.1780   -0.8097   -0.7949 C   0  0  0  0  0  0  0  0  0  0  0  0
    4.9412    0.6852   -0.8040 C   0  0  0  0  0  0  0  0  0  0  0  0
    3.5255    1.0499   -1.1024 C   0  0  0  0  0  0  0  0  0  0  0  0
    2.5806    0.4866   -0.1030 C   0  0  0  0  0  0  0  0  0  0  0  0
    3.0587   -0.1916    0.8154 O   0  0  0  0  0  0  0  0  0  0  0  0
    1.1755    0.6978   -0.1673 N   0  0  0  0  0  0  0  0  0  0  0  0
    0.3585    0.0198    0.9795 C   0  0  1  0  0  0  0  0  0  0  0  0
    0.0391    1.4207    1.7615 C   0  0  0  0  0  0  0  0  0  0  0  0
   -0.7011    2.3495    0.9001 C   0  0  0  0  0  0  0  0  0  0  0  0
   -0.9498    3.5826    1.7093 C   0  0  0  0  0  0  0  0  0  0  0  0
   -0.0219    2.6482   -0.4169 C   0  0  0  0  0  0  0  0  0  0  0  0
   -0.9933   -0.1792    0.1941 C   0  0  0  0  0  0  0  0  0  0  0  0
   -1.0478    0.1823   -0.9804 O   0  0  0  0  0  0  0  0  0  0  0  0
   -2.0879   -0.7540    0.8386 N   0  0  0  0  0  0  0  0  0  0  0  0
   -3.3869   -0.9744    0.1805 C   0  0  0  0  0  0  0  0  0  0  0  0
   -4.2513   -1.6126    1.2446 C   0  0  0  0  0  0  0  0  0  0  0  0
   -5.6110   -1.9132    0.7782 C   0  0  0  0  0  0  0  0  0  0  0  0
   -6.4644   -2.5968    1.6944 N   0  0  0  0  0  0  0  0  0  0  0  0
   -5.9995   -1.5796   -0.3797 O   0  0  0  0  0  0  0  0  0  0  0  0
    3.9092   -2.8594   -0.2540 C   0  0  0  0  0  0  0  0  0  0  0  0
    4.5856   -1.7253   -1.2530 C   0  0  2  0  0  0  0  0  0  0  0  0
    3.8354   -0.4668   -0.4995 C   0  0  0  0  0  0  0  0  0  0  0  0
    4.3426    0.6452   -1.2854 N   0  0  0  0  0  0  0  0  0  0  0  0
    5.4624    1.3101   -0.9921 N   0  0  0  0  0  0  0  0  0  0  0  0
    5.6058    2.2574   -1.9313 C   0  0  0  0  0  0  0  0  0  0  0  0
    4.5676    2.1647   -2.7964 N   0  0  0  0  0  0  0  0  0  0  0  0
    3.8103    1.1665   -2.3732 N   0  0  0  0  0  0  0  0  0  0  0  0
    3.4940   -1.9070   -2.3609 N   0  0  0  0  0  0  0  0  0  0  0  0
    2.1324   -1.7320   -1.9759 C   0  0  0  0  0  0  0  0  0  0  0  0
    1.1253   -1.8656   -2.8562 N   0  0  0  0  0  0  0  0  0  0  0  0
   -0.1645   -1.7039   -2.4987 C   0  0  0  0  0  0  0  0  0  0  0  0
   -0.5300   -1.3908   -1.2045 C   0  0  0  0  0  0  0  0  0  0  0  0
   -1.8387   -1.2194   -0.8092 C   0  0  0  0  0  0  0  0  0  0  0  0
   -2.1432   -0.9028    0.5169 C   0  0  0  0  0  0  0  0  0  0  0  0
   -3.4741   -0.7301    0.9121 O   0  0  0  0  0  0  0  0  0  0  0  0
   -3.8013    0.5170    1.4286 C   0  0  0  0  0  0  0  0  0  0  0  0
   -2.8991    1.5526    1.5604 C   0  0  0  0  0  0  0  0  0  0  0  0
   -3.2469    2.7699    2.0717 C   0  0  0  0  0  0  0  0  0  0  0  0
   -4.5325    3.0152    2.4822 C   0  0  0  0  0  0  0  0  0  0  0  0
   -4.9109    4.2305    3.0005 F   0  0  0  0  0  0  0  0  0  0  0  0
   -5.4532    2.0079    2.3649 C   0  0  0  0  0  0  0  0  0  0  0  0
   -5.0954    0.7672    1.8429 C   0  0  0  0  0  0  0  0  0  0  0  0
   -6.0318   -0.2142    1.7385 F   0  0  0  0  0  0  0  0  0  0  0  0
   -1.0875   -0.7727    1.3958 C   0  0  0  0  0  0  0  0  0  0  0  0
   -1.3595   -0.4848    2.6041 O   0  0  0  0  0  0  0  0  0  0  0  0
    0.1756   -0.9475    0.9726 N   0  0  0  0  0  0  0  0  0  0  0  0
    1.2536   -0.8019    1.9266 C   0  0  0  0  0  0  0  0  0  0  0  0
    0.5017   -1.2528   -0.2978 C   0  0  0  0  0  0  0  0  0  0  0  0
    1.7674   -1.4272   -0.7188 N   0  0  0  0  0  0  0  0  0  0  0  0
  1  2  1  0
  2  3  1  0
  3  4  1  0
  4  5  1  0
  5  6  1  0
  6  7  2  0
  6  8  1  0
  8  9  1  0
  9 10  1  1
 10 11  1  0
 11 12  1  0
 11 13  1  0
  9 14  1  0
 14 15  2  0
 14 16  1  0
 16 17  1  0
 17 18  1  0
 18 19  1  0
 19 20  1  0
 19 21  2  0
 23 22  1  1
 23 24  1  0
 24 25  1  0
 25 26  1  0
 26 27  2  0
 27 28  1  0
 28 29  2  0
 23 30  1  0
 30 31  1  0
 31 32  2  0
 32 33  1  0
 33 34  2  0
 34 35  1  0
 35 36  2  0
 36 37  1  0
 37 38  1  0
 38 39  2  0
 39 40  1  0
 40 41  2  0
 41 42  1  0
 41 43  1  0
 43 44  2  0
 44 45  1  0
 36 46  1  0
 46 47  2  0
 46 48  1  0
 48 49  1  0
 48 50  1  0
 50 51  2  0
 29 25  1  0
 51 31  1  0
 50 34  1  0
 44 38  1  0
M  END

