
     RDKit          3D

 50 53  0  0  0  0  0  0  0  0999 V2000
   -2.9801   -1.6609    3.1401 C   0  0  0  0  0  0  0  0  0  0  0  0
   -2.1612   -2.1006    2.0147 N   0  0  0  0  0  0  0  0  0  0  0  0
   -1.3489   -1.1790    1.3468 C   0  0  0  0  0  0  0  0  0  0  0  0
   -1.2719   -0.0147    1.6419 O   0  0  0  0  0  0  0  0  0  0  0  0
   -0.5294   -1.7836    0.1637 C   0  0  1  0  0  0  0  0  0  0  0  0
   -1.7027   -1.6952   -0.9726 C   0  0  0  0  0  0  0  0  0  0  0  0
   -2.1102   -0.3186   -1.1392 C   0  0  0  0  0  0  0  0  0  0  0  0
   -3.1523    0.1447   -0.3536 C   0  0  0  0  0  0  0  0  0  0  0  0
   -3.6162    1.4320   -0.4470 C   0  0  0  0  0  0  0  0  0  0  0  0
   -3.0302    2.2888   -1.3458 C   0  0  0  0  0  0  0  0  0  0  0  0
   -1.9619    1.8156   -2.1524 C   0  0  0  0  0  0  0  0  0  0  0  0
   -1.5376    0.5331   -2.0236 C   0  0  0  0  0  0  0  0  0  0  0  0
    0.2052   -0.4760   -0.3091 N   0  0  0  0  0  0  0  0  0  0  0  0
    1.5652   -0.3837    0.0351 C   0  0  0  0  0  0  0  0  0  0  0  0
    2.0128   -1.4005    0.6962 O   0  0  0  0  0  0  0  0  0  0  0  0
    2.5299    0.6738   -0.2404 C   0  0  0  0  0  0  0  0  0  0  0  0
    3.9106    0.3925    0.3007 C   0  0  0  0  0  0  0  0  0  0  0  0
    4.7656    1.5512   -0.0559 C   0  0  0  0  0  0  0  0  0  0  0  0
    6.0945    1.4511    0.3983 O   0  0  0  0  0  1  0  0  0  0  0  0
    4.3186    2.5050   -0.6979 O   0  0  0  0  0  0  0  0  0  0  0  0
    5.6184    1.8865    0.2951 C   0  0  0  0  0  0  0  0  0  0  0  0
    4.1508    1.4834    0.9929 C   0  0  2  0  0  0  0  0  0  0  0  0
    4.5052   -0.1525    0.9236 C   0  0  0  0  0  0  0  0  0  0  0  0
    5.7015   -0.2400    1.7235 N   0  0  0  0  0  0  0  0  0  0  0  0
    5.6988   -0.4533    3.0165 N   0  0  0  0  0  0  0  0  0  0  0  0
    6.9460   -0.4892    3.5154 C   0  0  0  0  0  0  0  0  0  0  0  0
    7.7526   -0.2817    2.4385 N   0  0  0  0  0  0  0  0  0  0  0  0
    6.9693   -0.1366    1.3816 N   0  0  0  0  0  0  0  0  0  0  0  0
    3.4177    1.4454   -0.4105 N   0  0  0  0  0  0  0  0  0  0  0  0
    2.0395    1.1239   -0.3673 C   0  0  0  0  0  0  0  0  0  0  0  0
    1.4372    0.8764    0.7997 N   0  0  0  0  0  0  0  0  0  0  0  0
    0.1391    0.5764    0.8097 C   0  0  0  0  0  0  0  0  0  0  0  0
   -0.5610    0.5270   -0.3906 C   0  0  0  0  0  0  0  0  0  0  0  0
   -1.8934    0.2247   -0.4397 C   0  0  0  0  0  0  0  0  0  0  0  0
   -2.5530    0.1848   -1.6418 C   0  0  0  0  0  0  0  0  0  0  0  0
   -3.9034   -0.1139   -1.7747 O   0  0  0  0  0  0  0  0  0  0  0  0
   -4.6286   -0.3884   -0.6219 C   0  0  0  0  0  0  0  0  0  0  0  0
   -5.6985    0.4140   -0.3201 C   0  0  0  0  0  0  0  0  0  0  0  0
   -6.4467    0.1782    0.8142 C   0  0  0  0  0  0  0  0  0  0  0  0
   -6.1059   -0.8713    1.6379 C   0  0  0  0  0  0  0  0  0  0  0  0
   -6.8532   -1.0984    2.7611 F   0  0  0  0  0  0  0  0  0  0  0  0
   -5.0276   -1.6893    1.3444 C   0  0  0  0  0  0  0  0  0  0  0  0
   -4.2756   -1.4406    0.1908 C   0  0  0  0  0  0  0  0  0  0  0  0
   -3.2343   -2.2470   -0.0735 F   0  0  0  0  0  0  0  0  0  0  0  0
   -1.8597    0.4543   -2.8195 C   0  0  0  0  0  0  0  0  0  0  0  0
   -2.4575    0.4197   -3.9258 O   0  0  0  0  0  0  0  0  0  0  0  0
   -0.5501    0.7496   -2.7511 N   0  0  0  0  0  0  0  0  0  0  0  0
    0.1703    1.0307   -3.9864 C   0  0  0  0  0  0  0  0  0  0  0  0
    0.1003    0.7896   -1.5729 C   0  0  0  0  0  0  0  0  0  0  0  0
    1.4019    1.0872   -1.5491 N   0  0  0  0  0  0  0  0  0  0  0  0
  1  2  1  0
  2  3  1  0
  3  4  2  0
  3  5  1  0
  5  6  1  1
  6  7  1  0
  7  8  2  0
  8  9  1  0
  9 10  2  0
 10 11  1  0
 11 12  2  0
  5 13  1  0
 13 14  1  0
 14 15  2  0
 14 16  1  0
 16 17  1  0
 17 18  1  0
 18 19  1  0
 18 20  2  0
 22 21  1  6
 22 23  1  0
 23 24  1  0
 24 25  1  0
 25 26  2  0
 26 27  1  0
 27 28  2  0
 22 29  1  0
 29 30  1  0
 30 31  2  0
 31 32  1  0
 32 33  2  0
 33 34  1  0
 34 35  2  0
 35 36  1  0
 36 37  1  0
 37 38  2  0
 38 39  1  0
 39 40  2  0
 40 41  1  0
 40 42  1  0
 42 43  2  0
 43 44  1  0
 35 45  1  0
 45 46  2  0
 45 47  1  0
 47 48  1  0
 47 49  1  0
 49 50  2  0
 12  7  1  0
 28 24  1  0
 50 30  1  0
 49 33  1  0
 43 37  1  0
M  RAD  1  19   2
M  END

