
     RDKit          3D

 50 53  0  0  0  0  0  0  0  0999 V2000
    3.9054    0.2565   -3.3196 C   0  0  0  0  0  0  0  0  0  0  0  0
    4.4758    1.5057   -2.4391 C   0  0  2  0  0  0  0  0  0  0  0  0
    5.9963    0.9389   -2.3646 C   0  0  0  0  0  0  0  0  0  0  0  0
    6.0073   -0.3294   -1.7350 N   0  0  0  0  0  0  0  0  0  0  0  0
    5.8790   -1.4874   -2.3863 N   0  0  0  0  0  0  0  0  0  0  0  0
    5.9272   -2.5029   -1.5334 C   0  0  0  0  0  0  0  0  0  0  0  0
    6.0894   -1.9764   -0.3180 N   0  0  0  0  0  0  0  0  0  0  0  0
    6.1350   -0.6671   -0.4629 N   0  0  0  0  0  0  0  0  0  0  0  0
    4.0304    0.9133   -1.0757 N   0  0  0  0  0  0  0  0  0  0  0  0
    2.6116    0.7361   -1.0442 C   0  0  0  0  0  0  0  0  0  0  0  0
    1.7846    1.0389   -2.0500 N   0  0  0  0  0  0  0  0  0  0  0  0
    0.4675    0.8452   -1.9470 C   0  0  0  0  0  0  0  0  0  0  0  0
   -0.0884    0.3162   -0.7759 C   0  0  0  0  0  0  0  0  0  0  0  0
   -1.4152    0.1023   -0.6232 C   0  0  0  0  0  0  0  0  0  0  0  0
   -2.0131   -0.4306    0.5469 C   0  0  0  0  0  0  0  0  0  0  0  0
   -3.2977   -0.5662    0.5143 O   0  0  0  0  0  0  0  0  0  0  0  0
   -4.5205   -0.3463    0.8989 C   0  0  0  0  0  0  0  0  0  0  0  0
   -5.4755    0.2438    0.0233 C   0  0  0  0  0  0  0  0  0  0  0  0
   -6.7617    0.4933    0.3766 C   0  0  0  0  0  0  0  0  0  0  0  0
   -7.2001    0.1776    1.6230 C   0  0  0  0  0  0  0  0  0  0  0  0
   -8.4874    0.4342    1.9623 F   0  0  0  0  0  0  0  0  0  0  0  0
   -6.3415   -0.3865    2.5032 C   0  0  0  0  0  0  0  0  0  0  0  0
   -5.0096   -0.6446    2.1358 C   0  0  0  0  0  0  0  0  0  0  0  0
   -4.2910   -1.2198    3.1222 F   0  0  0  0  0  0  0  0  0  0  0  0
   -1.1141   -0.7186    1.5344 C   0  0  0  0  0  0  0  0  0  0  0  0
   -1.4653   -1.1913    2.6201 O   0  0  0  0  0  0  0  0  0  0  0  0
    0.2295   -0.5037    1.3846 N   0  0  0  0  0  0  0  0  0  0  0  0
    1.1274   -0.8325    2.4757 C   0  0  0  0  0  0  0  0  0  0  0  0
    0.7570    0.0019    0.2640 C   0  0  0  0  0  0  0  0  0  0  0  0
    2.0578    0.2222    0.0893 N   0  0  0  0  0  0  0  0  0  0  0  0
    2.2895   -1.2569   -0.4268 C   0  0  0  0  0  0  0  0  0  0  0  0
    1.5592    0.1416    0.1051 C   0  0  2  0  0  0  0  0  0  0  0  0
    0.4876    0.1303   -1.0634 N   0  0  0  0  0  0  0  0  0  0  0  0
   -0.3477   -0.9919   -1.1066 C   0  0  0  0  0  0  0  0  0  0  0  0
   -0.2037   -1.8934   -0.2468 O   0  0  0  0  0  0  0  0  0  0  0  0
   -1.3849   -1.1018   -2.1589 C   0  0  0  0  0  0  0  0  0  0  0  0
   -2.1287   -2.4046   -1.9787 C   0  0  0  0  0  0  0  0  0  0  0  0
   -2.7693   -2.4022   -0.6055 C   0  0  0  0  0  0  0  0  0  0  0  0
   -3.7111   -1.2096   -0.5850 C   0  0  0  0  0  0  0  0  0  0  0  0
   -4.3500   -1.1762    0.7281 N   0  0  0  0  0  0  0  0  0  0  0  0
   -5.2865   -0.2203    1.1352 C   0  0  0  0  0  0  0  0  0  0  0  0
   -5.8228   -0.3225    2.4541 N   0  0  0  0  0  0  0  0  0  0  0  0
   -5.6286    0.7128    0.3068 N   0  0  0  0  0  4  0  0  0  0  0  0
    2.5602    1.1279   -0.6091 C   0  0  0  0  0  0  0  0  0  0  0  0
    2.4113    1.6256   -1.6933 O   0  0  0  0  0  0  0  0  0  0  0  0
    3.6827    1.3779    0.1711 N   0  0  0  0  0  0  0  0  0  0  0  0
    4.8467    2.2308   -0.1175 C   0  0  0  0  0  0  0  0  0  0  0  0
    5.3981    2.6774    1.2167 C   0  0  0  0  0  0  0  0  0  0  0  0
    4.4121    2.1058    2.2370 C   0  0  0  0  0  0  0  0  0  0  0  0
    3.9859    0.8491    1.4812 C   0  0  0  0  0  0  0  0  0  0  0  0
  2  1  1  6
  2  3  1  0
  3  4  1  0
  4  5  1  0
  5  6  2  0
  6  7  1  0
  7  8  2  0
  2  9  1  0
  9 10  1  0
 10 11  2  0
 11 12  1  0
 12 13  2  0
 13 14  1  0
 14 15  2  0
 15 16  1  0
 16 17  1  0
 17 18  2  0
 18 19  1  0
 19 20  2  0
 20 21  1  0
 20 22  1  0
 22 23  2  0
 23 24  1  0
 15 25  1  0
 25 26  2  0
 25 27  1  0
 27 28  1  0
 27 29  1  0
 29 30  2  0
 32 31  1  6
 32 33  1  0
 33 34  1  0
 34 35  2  0
 34 36  1  0
 36 37  1  0
 37 38  1  0
 38 39  1  0
 39 40  1  0
 40 41  1  0
 41 42  1  0
 41 43  2  0
 32 44  1  0
 44 45  2  0
 44 46  1  0
 46 47  1  0
 47 48  1  0
 48 49  1  0
 49 50  1  0
  8  4  1  0
 30 10  1  0
 50 46  1  0
 29 13  1  0
 23 17  1  0
M  CHG  1  43   1
M  END

