
     RDKit          3D

 59 62  0  0  0  0  0  0  0  0999 V2000
    5.1155   -2.7646    1.7308 C   0  0  0  0  0  0  0  0  0  0  0  0
    3.6283   -3.0906    0.9784 C   0  0  2  0  0  0  0  0  0  0  0  0
    4.2301   -2.4448   -0.4505 C   0  0  0  0  0  0  0  0  0  0  0  0
    5.3984   -3.2010   -0.7538 N   0  0  0  0  0  0  0  0  0  0  0  0
    5.5409   -4.2856   -1.4455 N   0  0  0  0  0  0  0  0  0  0  0  0
    6.8648   -4.6094   -1.4397 C   0  0  0  0  0  0  0  0  0  0  0  0
    7.5144   -3.6721   -0.7126 N   0  0  0  0  0  0  0  0  0  0  0  0
    6.6048   -2.8350   -0.3118 N   0  0  0  0  0  0  0  0  0  0  0  0
    3.0311   -1.7016    1.4148 N   0  0  0  0  0  0  0  0  0  0  0  0
    1.7285   -1.3479    1.1673 C   0  0  0  0  0  0  0  0  0  0  0  0
    0.9332   -2.2259    0.5483 N   0  0  0  0  0  0  0  0  0  0  0  0
   -0.3511   -1.9939    0.2617 C   0  0  0  0  0  0  0  0  0  0  0  0
   -0.9000   -0.7960    0.6114 C   0  0  0  0  0  0  0  0  0  0  0  0
   -2.2150   -0.5095    0.3523 C   0  0  0  0  0  0  0  0  0  0  0  0
   -2.7210    0.7319    0.7468 C   0  0  0  0  0  0  0  0  0  0  0  0
   -4.0282    1.0582    0.5138 O   0  0  0  0  0  0  0  0  0  0  0  0
   -4.3797    2.1326   -0.2550 C   0  0  0  0  0  0  0  0  0  0  0  0
   -5.1428    3.1822    0.2476 C   0  0  0  0  0  0  0  0  0  0  0  0
   -5.4689    4.2468   -0.5920 C   0  0  0  0  0  0  0  0  0  0  0  0
   -5.0704    4.3026   -1.8869 C   0  0  0  0  0  0  0  0  0  0  0  0
   -5.3910    5.3240   -2.7083 F   0  0  0  0  0  0  0  0  0  0  0  0
   -4.3087    3.2507   -2.3832 C   0  0  0  0  0  0  0  0  0  0  0  0
   -3.9772    2.1933   -1.5697 C   0  0  0  0  0  0  0  0  0  0  0  0
   -3.2301    1.1659   -2.0644 F   0  0  0  0  0  0  0  0  0  0  0  0
   -1.8722    1.6078    1.3753 C   0  0  0  0  0  0  0  0  0  0  0  0
   -2.3142    2.7542    1.7464 O   0  0  0  0  0  0  0  0  0  0  0  0
   -0.5920    1.3211    1.6227 N   0  0  0  0  0  0  0  0  0  0  0  0
    0.2856    2.2591    2.2755 C   0  0  0  0  0  0  0  0  0  0  0  0
   -0.0955    0.1041    1.2395 C   0  0  0  0  0  0  0  0  0  0  0  0
    1.1824   -0.1566    1.5120 N   0  0  0  0  0  0  0  0  0  0  0  0
    0.8965   -4.5061   -2.3458 N   0  0  0  0  0  0  0  0  0  0  0  0
    0.8386   -4.4372   -0.9474 C   0  0  0  0  0  0  0  0  0  0  0  0
   -0.2382   -4.2117   -0.2651 N   0  0  0  0  0  4  0  0  0  0  0  0
    2.0193   -4.6191   -0.1422 N   0  0  0  0  0  0  0  0  0  0  0  0
    2.0082   -4.5561    1.2957 C   0  0  0  0  0  0  0  0  0  0  0  0
    1.5344   -3.2326    1.8352 C   0  0  0  0  0  0  0  0  0  0  0  0
    2.4107   -2.0879    1.3590 C   0  0  0  0  0  0  0  0  0  0  0  0
    1.6713   -0.7920    2.0897 C   0  0  2  0  0  0  0  0  0  0  0  0
    0.2900   -1.0457    1.3626 N   0  0  0  0  0  0  0  0  0  0  0  0
   -0.5386    0.1146    1.3987 C   0  0  0  0  0  0  0  0  0  0  0  0
   -0.1983    1.1954    1.9406 O   0  0  0  0  0  0  0  0  0  0  0  0
   -1.8747    0.0137    0.7524 C   0  0  0  0  0  0  0  0  0  0  0  0
   -2.6247    1.3237    0.8284 C   0  0  0  0  0  0  0  0  0  0  0  0
   -3.9359    1.1360    0.1722 C   0  0  0  0  0  0  0  0  0  0  0  0
   -5.0481    0.7399    0.8814 C   0  0  0  0  0  0  0  0  0  0  0  0
   -6.2793    0.5540    0.3043 C   0  0  0  0  0  0  0  0  0  0  0  0
   -6.4611    0.7642   -1.0637 C   0  0  0  0  0  0  0  0  0  0  0  0
   -7.7075    0.5698   -1.6161 O   0  0  0  0  0  0  0  0  0  0  0  0
   -5.3481    1.1600   -1.7724 C   0  0  0  0  0  0  0  0  0  0  0  0
   -4.1162    1.3435   -1.1804 C   0  0  0  0  0  0  0  0  0  0  0  0
    2.2279    0.2701    1.0610 C   0  0  0  0  0  0  0  0  0  0  0  0
    1.6074    0.6315    0.0826 O   0  0  0  0  0  0  0  0  0  0  0  0
    3.4987    0.7615    1.3699 N   0  0  0  0  0  0  0  0  0  0  0  0
    4.2163    1.7386    0.5767 C   0  0  0  0  0  0  0  0  0  0  0  0
    3.4418    3.0368    0.4657 C   0  0  0  0  0  0  0  0  0  0  0  0
    4.1937    4.0448   -0.3590 C   0  0  0  0  0  0  0  0  0  0  0  0
    4.4179    3.5010   -1.7162 C   0  0  0  0  0  0  0  0  0  0  0  0
    5.0804    4.2454   -2.6695 O   0  0  0  0  0  1  0  0  0  0  0  0
    4.0175    2.3443   -2.0613 O   0  0  0  0  0  0  0  0  0  0  0  0
  2  1  1  1
  2  3  1  0
  3  4  1  0
  4  5  1  0
  5  6  2  0
  6  7  1  0
  7  8  2  0
  2  9  1  0
  9 10  1  0
 10 11  2  0
 11 12  1  0
 12 13  2  0
 13 14  1  0
 14 15  2  0
 15 16  1  0
 16 17  1  0
 17 18  2  0
 18 19  1  0
 19 20  2  0
 20 21  1  0
 20 22  1  0
 22 23  2  0
 23 24  1  0
 15 25  1  0
 25 26  2  0
 25 27  1  0
 27 28  1  0
 27 29  1  0
 29 30  2  0
 31 32  1  0
 32 33  2  0
 32 34  1  0
 34 35  1  0
 35 36  1  0
 36 37  1  0
 38 37  1  6
 38 39  1  0
 39 40  1  0
 40 41  2  0
 40 42  1  0
 42 43  1  0
 43 44  1  0
 44 45  2  0
 45 46  1  0
 46 47  2  0
 47 48  1  0
 47 49  1  0
 49 50  2  0
 38 51  1  0
 51 52  2  0
 51 53  1  0
 53 54  1  0
 54 55  1  0
 55 56  1  0
 56 57  1  0
 57 58  1  0
 57 59  2  0
  8  4  1  0
 30 10  1  0
 50 44  1  0
 29 13  1  0
 23 17  1  0
M  CHG  1  33   1
M  RAD  1  58   2
M  END

