
     RDKit          3D

 53 56  0  0  0  0  0  0  0  0999 V2000
   -4.4271   -2.3007    1.2342 C   0  0  0  0  0  0  0  0  0  0  0  0
   -4.8106   -0.6651    1.2128 C   0  0  2  0  0  0  0  0  0  0  0  0
   -6.0716   -0.9083    0.1598 C   0  0  0  0  0  0  0  0  0  0  0  0
   -6.6127    0.4253   -0.0408 N   0  0  0  0  0  0  0  0  0  0  0  0
   -6.2462    1.2999   -0.9776 N   0  0  0  0  0  0  0  0  0  0  0  0
   -6.9599    2.4297   -0.8625 C   0  0  0  0  0  0  0  0  0  0  0  0
   -7.7843    2.2491    0.1668 N   0  0  0  0  0  0  0  0  0  0  0  0
   -7.5608    1.0380    0.6480 N   0  0  0  0  0  0  0  0  0  0  0  0
   -3.8010   -0.3041    0.0510 N   0  0  0  0  0  0  0  0  0  0  0  0
   -2.4505   -0.5445    0.2345 C   0  0  0  0  0  0  0  0  0  0  0  0
   -2.0310   -1.0794    1.3968 N   0  0  0  0  0  0  0  0  0  0  0  0
   -0.7462   -1.3529    1.6789 C   0  0  0  0  0  0  0  0  0  0  0  0
    0.2077   -1.0734    0.7294 C   0  0  0  0  0  0  0  0  0  0  0  0
    1.5487   -1.3234    0.9385 C   0  0  0  0  0  0  0  0  0  0  0  0
    2.4240   -1.0155   -0.0564 C   0  0  0  0  0  0  0  0  0  0  0  0
    3.7657   -1.2583    0.1353 O   0  0  0  0  0  0  0  0  0  0  0  0
    4.6534   -0.1974    0.0759 C   0  0  0  0  0  0  0  0  0  0  0  0
    4.2789    1.1040   -0.1659 C   0  0  0  0  0  0  0  0  0  0  0  0
    5.2301    2.0976   -0.2078 C   0  0  0  0  0  0  0  0  0  0  0  0
    6.5483    1.7698   -0.0057 C   0  0  0  0  0  0  0  0  0  0  0  0
    7.4944    2.7364   -0.0441 F   0  0  0  0  0  0  0  0  0  0  0  0
    6.9740    0.4796    0.2402 C   0  0  0  0  0  0  0  0  0  0  0  0
    6.0012   -0.4957    0.2768 C   0  0  0  0  0  0  0  0  0  0  0  0
    6.3818   -1.7607    0.5137 F   0  0  0  0  0  0  0  0  0  0  0  0
    2.0085   -0.4710   -1.2429 C   0  0  0  0  0  0  0  0  0  0  0  0
    2.8127   -0.1889   -2.1552 O   0  0  0  0  0  0  0  0  0  0  0  0
    0.6894   -0.2395   -1.4143 N   0  0  0  0  0  0  0  0  0  0  0  0
    0.2280    0.3431   -2.6790 C   0  0  0  0  0  0  0  0  0  0  0  0
   -0.2113   -0.5244   -0.4670 C   0  0  0  0  0  0  0  0  0  0  0  0
   -1.5333   -0.2693   -0.6941 N   0  0  0  0  0  0  0  0  0  0  0  0
   -6.2789   -2.9438    1.2154 O   0  0  0  0  0  1  0  0  0  0  0  0
   -5.1679   -2.6037    0.4590 C   0  0  0  0  0  0  0  0  0  0  0  0
   -4.6867   -3.3876   -0.4280 O   0  0  0  0  0  0  0  0  0  0  0  0
   -4.5395   -1.2585    0.7215 C   0  0  0  0  0  0  0  0  0  0  0  0
   -3.4062   -1.1418   -0.2522 C   0  0  0  0  0  0  0  0  0  0  0  0
   -2.6473    0.1229   -0.1256 C   0  0  0  0  0  0  0  0  0  0  0  0
   -2.9475    0.9684    0.7374 O   0  0  0  0  0  0  0  0  0  0  0  0
   -1.6072    0.3921   -0.9470 N   0  0  0  0  0  0  0  0  0  0  0  0
   -0.7493    1.7061   -0.8684 C   0  0  1  0  0  0  0  0  0  0  0  0
   -1.3019    2.2839    0.5876 C   0  0  0  0  0  0  0  0  0  0  0  0
   -0.5081    3.5442    0.7082 C   0  0  0  0  0  0  0  0  0  0  0  0
   -1.0473    4.7993    0.4894 O   0  0  0  0  0  1  0  0  0  0  0  0
    0.7241    3.5380    1.0197 O   0  0  0  0  0  0  0  0  0  0  0  0
    0.5526    0.9797   -0.2374 C   0  0  0  0  0  0  0  0  0  0  0  0
    0.4249    0.0783    0.5620 O   0  0  0  0  0  0  0  0  0  0  0  0
    1.7805    1.5210   -0.7338 N   0  0  0  0  0  0  0  0  0  0  0  0
    2.9904    0.8742   -0.1862 C   0  0  0  0  0  0  0  0  0  0  0  0
    2.9481   -0.6100   -0.5307 C   0  0  0  0  0  0  0  0  0  0  0  0
    4.1560   -1.2488    0.0290 C   0  0  0  0  0  0  0  0  0  0  0  0
    4.2903   -1.7869    1.2791 C   0  0  0  0  0  0  0  0  0  0  0  0
    5.5310   -2.3049    1.4188 N   0  0  0  0  0  0  0  0  0  0  0  0
    6.1531   -2.0829    0.2624 C   0  0  0  0  0  0  0  0  0  0  0  0
    5.3366   -1.4395   -0.6050 N   0  0  0  0  0  0  0  0  0  0  0  0
  2  1  1  6
  2  3  1  0
  3  4  1  0
  4  5  1  0
  5  6  2  0
  6  7  1  0
  7  8  2  0
  2  9  1  0
  9 10  1  0
 10 11  2  0
 11 12  1  0
 12 13  2  0
 13 14  1  0
 14 15  2  0
 15 16  1  0
 16 17  1  0
 17 18  2  0
 18 19  1  0
 19 20  2  0
 20 21  1  0
 20 22  1  0
 22 23  2  0
 23 24  1  0
 15 25  1  0
 25 26  2  0
 25 27  1  0
 27 28  1  0
 27 29  1  0
 29 30  2  0
 31 32  1  0
 32 33  2  0
 32 34  1  0
 34 35  1  0
 35 36  1  0
 36 37  2  0
 36 38  1  0
 38 39  1  0
 39 40  1  1
 40 41  1  0
 41 42  1  0
 41 43  2  0
 39 44  1  0
 44 45  2  0
 44 46  1  0
 46 47  1  0
 47 48  1  0
 48 49  1  0
 49 50  2  0
 50 51  1  0
 51 52  1  0
 52 53  2  0
  8  4  1  0
 30 10  1  0
 53 49  1  0
 29 13  1  0
 23 17  1  0
M  RAD  2  31   2  42   2
M  END

