
     RDKit          3D

 49 51  0  0  0  0  0  0  0  0999 V2000
   -5.0513   -0.5189   -1.0363 C   0  0  0  0  0  0  0  0  0  0  0  0
   -4.1936   -0.1535    0.1391 C   0  0  0  0  0  0  0  0  0  0  0  0
   -4.8947    0.7156    1.1441 C   0  0  0  0  0  0  0  0  0  0  0  0
   -2.8256    0.2988   -0.2246 C   0  0  0  0  0  0  0  0  0  0  0  0
   -2.0956    0.6276    1.0559 C   0  0  0  0  0  0  0  0  0  0  0  0
   -0.7199    1.0873    0.7892 N   0  0  0  0  0  0  0  0  0  0  0  0
    0.2239    0.2909    0.1211 C   0  0  0  0  0  0  0  0  0  0  0  0
   -0.0999   -0.8314   -0.2695 O   0  0  0  0  0  0  0  0  0  0  0  0
    1.6366    0.8999   -0.0748 C   0  0  2  0  0  0  0  0  0  0  0  0
    1.3337    1.7207   -1.4334 C   0  0  0  0  0  0  0  0  0  0  0  0
    0.2803    2.7096   -1.1466 C   0  0  0  0  0  0  0  0  0  0  0  0
    0.6912    3.9549   -0.5375 N   0  0  0  0  0  0  0  0  0  0  0  0
   -0.9405    2.5985   -1.3700 O   0  0  0  0  0  0  0  0  0  0  0  0
    2.3087   -0.3143   -0.7929 N   0  0  0  0  0  0  0  0  0  0  0  0
    2.6656   -1.4146    0.0311 C   0  0  0  0  0  0  0  0  0  0  0  0
    2.4078   -1.3122    1.2655 O   0  0  0  0  0  0  0  0  0  0  0  0
    3.3055   -2.6493   -0.4479 C   0  0  0  0  0  0  0  0  0  0  0  0
    3.5655   -3.6513    0.6181 C   0  0  0  0  0  0  0  0  0  0  0  0
    2.4022   -4.0583    1.2525 O   0  0  0  0  0  0  0  0  0  0  0  0
   -4.7232   -1.9960    0.5411 C   0  0  0  0  0  0  0  0  0  0  0  0
   -4.9434   -0.3537    0.5581 C   0  0  2  0  0  0  0  0  0  0  0  0
   -6.0165   -0.4362   -0.7022 C   0  0  0  0  0  0  0  0  0  0  0  0
   -6.4022    0.9440   -0.9209 N   0  0  0  0  0  0  0  0  0  0  0  0
   -5.8531    1.8353   -1.7055 N   0  0  0  0  0  0  0  0  0  0  0  0
   -6.5541    2.9836   -1.5812 C   0  0  0  0  0  0  0  0  0  0  0  0
   -7.5346    2.7370   -0.6963 N   0  0  0  0  0  0  0  0  0  0  0  0
   -7.4270    1.4974   -0.3073 N   0  0  0  0  0  0  0  0  0  0  0  0
   -3.7271   -0.0640   -0.3851 N   0  0  0  0  0  0  0  0  0  0  0  0
   -2.4620   -0.4957    0.0887 C   0  0  0  0  0  0  0  0  0  0  0  0
   -2.2278   -1.1107    1.2386 N   0  0  0  0  0  0  0  0  0  0  0  0
   -0.9700   -1.4903    1.6113 C   0  0  0  0  0  0  0  0  0  0  0  0
    0.0912   -1.2293    0.7719 C   0  0  0  0  0  0  0  0  0  0  0  0
    1.3968   -1.5763    1.0655 C   0  0  0  0  0  0  0  0  0  0  0  0
    2.4079   -1.2762    0.1637 C   0  0  0  0  0  0  0  0  0  0  0  0
    3.6968   -1.6232    0.4622 O   0  0  0  0  0  0  0  0  0  0  0  0
    4.7208   -0.7103    0.5724 C   0  0  0  0  0  0  0  0  0  0  0  0
    5.7947   -0.8700   -0.2982 C   0  0  0  0  0  0  0  0  0  0  0  0
    6.8338    0.0355   -0.2049 C   0  0  0  0  0  0  0  0  0  0  0  0
    6.8524    1.0705    0.6961 C   0  0  0  0  0  0  0  0  0  0  0  0
    7.9020    1.9235    0.7358 F   0  0  0  0  0  0  0  0  0  0  0  0
    5.7728    1.2041    1.5474 C   0  0  0  0  0  0  0  0  0  0  0  0
    4.7177    0.3235    1.4870 C   0  0  0  0  0  0  0  0  0  0  0  0
    3.6870    0.4808    2.3261 F   0  0  0  0  0  0  0  0  0  0  0  0
    2.1248   -0.6334   -1.0266 C   0  0  0  0  0  0  0  0  0  0  0  0
    3.0667   -0.3822   -1.8105 O   0  0  0  0  0  0  0  0  0  0  0  0
    0.8475   -0.3132   -1.2755 N   0  0  0  0  0  0  0  0  0  0  0  0
    0.5008    0.3624   -2.5115 C   0  0  0  0  0  0  0  0  0  0  0  0
   -0.1558   -0.5899   -0.4224 C   0  0  0  0  0  0  0  0  0  0  0  0
   -1.4172   -0.2470   -0.7211 N   0  0  0  0  0  0  0  0  0  0  0  0
  1  2  1  0
  2  3  1  0
  2  4  1  0
  4  5  1  0
  5  6  1  0
  6  7  1  0
  7  8  2  0
  7  9  1  0
  9 10  1  6
 10 11  1  0
 11 12  1  0
 11 13  2  0
  9 14  1  0
 14 15  1  0
 15 16  2  0
 15 17  1  0
 17 18  1  0
 18 19  1  0
 21 20  1  6
 21 22  1  0
 22 23  1  0
 23 24  1  0
 24 25  2  0
 25 26  1  0
 26 27  2  0
 21 28  1  0
 28 29  1  0
 29 30  2  0
 30 31  1  0
 31 32  2  0
 32 33  1  0
 33 34  2  0
 34 35  1  0
 35 36  1  0
 36 37  2  0
 37 38  1  0
 38 39  2  0
 39 40  1  0
 39 41  1  0
 41 42  2  0
 42 43  1  0
 34 44  1  0
 44 45  2  0
 44 46  1  0
 46 47  1  0
 46 48  1  0
 48 49  2  0
 27 23  1  0
 49 29  1  0
 48 32  1  0
 42 36  1  0
M  END

