
     RDKit          3D

 53 55  0  0  0  0  0  0  0  0999 V2000
   -6.2496    0.2214    1.9361 C   0  0  0  0  0  0  0  0  0  0  0  0
   -4.9200   -0.0612    1.1503 C   0  0  0  0  0  0  0  0  0  0  0  0
   -3.8336    0.5790    2.0641 C   0  0  0  0  0  0  0  0  0  0  0  0
   -4.9952    0.6380   -0.1435 C   0  0  0  0  0  0  0  0  0  0  0  0
   -4.0449    0.5986   -1.1752 C   0  0  0  0  0  0  0  0  0  0  0  0
   -2.7161    0.9042   -1.1111 N   0  0  0  0  0  0  0  0  0  0  0  0
   -1.7186    0.1761   -0.4163 C   0  0  0  0  0  0  0  0  0  0  0  0
   -1.9756   -0.8784    0.2082 O   0  0  0  0  0  0  0  0  0  0  0  0
   -0.2637    0.7530   -0.4515 C   0  0  2  0  0  0  0  0  0  0  0  0
    0.3419    0.0987   -1.7561 C   0  0  0  0  0  0  0  0  0  0  0  0
   -0.2929    0.3874   -2.9869 C   0  0  0  0  0  0  0  0  0  0  0  0
   -1.6154   -0.0390   -3.3811 C   0  0  0  0  0  0  0  0  0  0  0  0
   -1.8122   -1.4925   -3.5465 C   0  0  0  0  0  0  0  0  0  0  0  0
   -1.5759   -2.3480   -2.4495 N   0  0  0  0  0  4  0  0  0  0  0  0
    0.3823   -0.2885    0.5351 N   0  0  0  0  0  0  0  0  0  0  0  0
    1.8054   -0.1768    0.5701 C   0  0  0  0  0  0  0  0  0  0  0  0
    2.4229    0.6664   -0.1199 O   0  0  0  0  0  0  0  0  0  0  0  0
    2.5676   -1.0904    1.4527 C   0  0  0  0  0  0  0  0  0  0  0  0
    4.0427   -0.7846    1.3325 C   0  0  0  0  0  0  0  0  0  0  0  0
    4.2467    0.6604    1.7596 C   0  0  0  0  0  0  0  0  0  0  0  0
    5.7023    0.9956    1.6524 C   0  0  0  0  0  0  0  0  0  0  0  0
    6.5617    0.1067    2.5367 C   0  0  0  0  0  0  0  0  0  0  0  0
    7.9402    0.5338    2.3397 N   0  0  0  0  0  4  0  0  0  0  0  0
    5.4825    2.1648    2.9419 C   0  0  0  0  0  0  0  0  0  0  0  0
    4.3210    2.5959    1.8453 C   0  0  1  0  0  0  0  0  0  0  0  0
    5.2127    2.1090    0.5525 C   0  0  0  0  0  0  0  0  0  0  0  0
    5.4735    0.7218    0.7353 N   0  0  0  0  0  0  0  0  0  0  0  0
    4.7409   -0.2966    0.3198 N   0  0  0  0  0  0  0  0  0  0  0  0
    5.3478   -1.4342    0.7036 C   0  0  0  0  0  0  0  0  0  0  0  0
    6.4637   -1.0851    1.3606 N   0  0  0  0  0  0  0  0  0  0  0  0
    6.5218    0.2292    1.3688 N   0  0  0  0  0  0  0  0  0  0  0  0
    3.5346    1.2481    1.9831 N   0  0  0  0  0  0  0  0  0  0  0  0
    2.3852    1.1996    1.1531 C   0  0  0  0  0  0  0  0  0  0  0  0
    2.0474    2.2209    0.3532 N   0  0  0  0  0  0  0  0  0  0  0  0
    0.9764    2.2437   -0.4567 C   0  0  0  0  0  0  0  0  0  0  0  0
    0.1692    1.1139   -0.4513 C   0  0  0  0  0  0  0  0  0  0  0  0
   -0.9499    1.0260   -1.2377 C   0  0  0  0  0  0  0  0  0  0  0  0
   -1.7231   -0.1218   -1.1973 C   0  0  0  0  0  0  0  0  0  0  0  0
   -2.8497   -0.2176   -1.9850 O   0  0  0  0  0  0  0  0  0  0  0  0
   -4.1264   -0.4033   -1.4958 C   0  0  0  0  0  0  0  0  0  0  0  0
   -4.4377   -0.5158   -0.1718 C   0  0  0  0  0  0  0  0  0  0  0  0
   -5.7260   -0.7015    0.2908 C   0  0  0  0  0  0  0  0  0  0  0  0
   -6.7378   -0.7744   -0.6519 C   0  0  0  0  0  0  0  0  0  0  0  0
   -8.0445   -0.9570   -0.2837 F   0  0  0  0  0  0  0  0  0  0  0  0
   -6.4772   -0.6673   -1.9911 C   0  0  0  0  0  0  0  0  0  0  0  0
   -5.1630   -0.4811   -2.4060 C   0  0  0  0  0  0  0  0  0  0  0  0
   -4.9012   -0.3754   -3.7188 F   0  0  0  0  0  0  0  0  0  0  0  0
   -1.3355   -1.1521   -0.3555 C   0  0  0  0  0  0  0  0  0  0  0  0
   -2.0847   -2.1858   -0.3586 O   0  0  0  0  0  0  0  0  0  0  0  0
   -0.2498   -1.0730    0.4106 N   0  0  0  0  0  0  0  0  0  0  0  0
    0.0697   -2.2027    1.2550 C   0  0  0  0  0  0  0  0  0  0  0  0
    0.4889    0.0469    0.3596 C   0  0  0  0  0  0  0  0  0  0  0  0
    1.5712    0.1168    1.1281 N   0  0  0  0  0  0  0  0  0  0  0  0
  1  2  1  0
  2  3  1  0
  2  4  1  0
  4  5  1  0
  5  6  1  0
  6  7  1  0
  7  8  2  0
  7  9  1  0
  9 10  1  6
 10 11  1  0
 11 12  1  0
 12 13  1  0
 13 14  1  0
  9 15  1  0
 15 16  1  0
 16 17  2  0
 16 18  1  0
 18 19  1  0
 19 20  1  0
 20 21  1  0
 21 22  1  0
 22 23  1  0
 25 24  1  6
 25 26  1  0
 26 27  1  0
 27 28  1  0
 28 29  2  0
 29 30  1  0
 30 31  2  0
 25 32  1  0
 32 33  1  0
 33 34  2  0
 34 35  1  0
 35 36  2  0
 36 37  1  0
 37 38  2  0
 38 39  1  0
 39 40  1  0
 40 41  2  0
 41 42  1  0
 42 43  2  0
 43 44  1  0
 43 45  1  0
 45 46  2  0
 46 47  1  0
 38 48  1  0
 48 49  2  0
 48 50  1  0
 50 51  1  0
 50 52  1  0
 52 53  2  0
 31 27  1  0
 53 33  1  0
 52 36  1  0
 46 40  1  0
M  CHG  2  14   1  23   1
M  END

