
     RDKit          3D

 45 47  0  0  0  0  0  0  0  0999 V2000
   -2.7353   -3.2625   -0.8843 C   0  0  0  0  0  0  0  0  0  0  0  0
   -2.6897   -2.0114   -1.7644 C   0  0  0  0  0  0  0  0  0  0  0  0
   -2.3046   -0.9044   -0.9087 N   0  0  0  0  0  0  0  0  0  0  0  0
   -1.0671   -0.8798   -0.1982 C   0  0  0  0  0  0  0  0  0  0  0  0
   -0.3058   -1.7952   -0.2977 O   0  0  0  0  0  0  0  0  0  0  0  0
   -0.8443    0.4274    0.6808 C   0  0  2  0  0  0  0  0  0  0  0  0
   -0.3344    1.3326   -0.5799 C   0  0  0  0  0  0  0  0  0  0  0  0
   -0.0693    2.6705    0.0650 C   0  0  0  0  0  0  0  0  0  0  0  0
    0.9792    2.5603    1.1463 C   0  0  0  0  0  0  0  0  0  0  0  0
   -1.3703    3.0698    0.7603 C   0  0  0  0  0  0  0  0  0  0  0  0
    0.5574    0.0617    1.2431 N   0  0  0  0  0  0  0  0  0  0  0  0
    1.6561   -0.1309    0.4412 C   0  0  0  0  0  0  0  0  0  0  0  0
    1.5419   -0.0084   -0.8060 O   0  0  0  0  0  0  0  0  0  0  0  0
    2.9633   -0.4833    1.0876 C   0  0  0  0  0  0  0  0  0  0  0  0
    4.0229   -0.6465    0.0149 C   0  0  0  0  0  0  0  0  0  0  0  0
    5.8826   -1.0148    0.0813 C   0  0  0  0  0  0  0  0  0  0  0  0
    4.3052   -0.7800   -0.3461 C   0  0  2  0  0  0  0  0  0  0  0  0
    4.1870    0.5880    0.5674 C   0  0  0  0  0  0  0  0  0  0  0  0
    5.2053    1.4173   -0.0409 N   0  0  0  0  0  0  0  0  0  0  0  0
    6.4544    1.4366    0.3444 N   0  0  0  0  0  0  0  0  0  0  0  0
    7.1412    2.2906   -0.3999 C   0  0  0  0  0  0  0  0  0  0  0  0
    6.2881    2.8281   -1.2874 N   0  0  0  0  0  0  0  0  0  0  0  0
    5.1168    2.2752   -1.0424 N   0  0  0  0  0  0  0  0  0  0  0  0
    3.7745   -1.6972    0.7924 N   0  0  0  0  0  0  0  0  0  0  0  0
    2.3419   -1.7561    0.7545 C   0  0  0  0  0  0  0  0  0  0  0  0
    1.6793   -2.5107    1.6732 N   0  0  0  0  0  0  0  0  0  0  0  0
    0.3478   -2.6182    1.7060 C   0  0  0  0  0  0  0  0  0  0  0  0
   -0.4000   -1.9422    0.7766 C   0  0  0  0  0  0  0  0  0  0  0  0
   -1.7934   -2.0138    0.7581 C   0  0  0  0  0  0  0  0  0  0  0  0
   -2.4395   -1.2959   -0.2172 C   0  0  0  0  0  0  0  0  0  0  0  0
   -3.8326   -1.3702   -0.2321 O   0  0  0  0  0  0  0  0  0  0  0  0
   -4.5430   -0.2098   -0.0752 C   0  0  0  0  0  0  0  0  0  0  0  0
   -5.3932    0.1863   -1.0659 C   0  0  0  0  0  0  0  0  0  0  0  0
   -6.1177    1.3452   -0.9350 C   0  0  0  0  0  0  0  0  0  0  0  0
   -5.9698    2.0951    0.2094 C   0  0  0  0  0  0  0  0  0  0  0  0
   -6.7194    3.2415    0.2822 F   0  0  0  0  0  0  0  0  0  0  0  0
   -5.1164    1.7044    1.2120 C   0  0  0  0  0  0  0  0  0  0  0  0
   -4.3919    0.5342    1.0677 C   0  0  0  0  0  0  0  0  0  0  0  0
   -3.5365    0.1377    2.0671 F   0  0  0  0  0  0  0  0  0  0  0  0
   -1.7664   -0.5327   -1.1462 C   0  0  0  0  0  0  0  0  0  0  0  0
   -2.4241    0.1201   -2.0386 O   0  0  0  0  0  0  0  0  0  0  0  0
   -0.4328   -0.4788   -1.1097 N   0  0  0  0  0  0  0  0  0  0  0  0
    0.3383    0.3010   -2.0523 C   0  0  0  0  0  0  0  0  0  0  0  0
    0.2349   -1.1673   -0.1705 C   0  0  0  0  0  0  0  0  0  0  0  0
    1.5791   -1.1134   -0.1332 N   0  0  0  0  0  0  0  0  0  0  0  0
  1  2  1  0
  2  3  1  0
  3  4  1  0
  4  5  2  0
  4  6  1  0
  6  7  1  6
  7  8  1  0
  8  9  1  0
  8 10  1  0
  6 11  1  0
 11 12  1  0
 12 13  2  0
 12 14  1  0
 14 15  1  0
 17 16  1  1
 17 18  1  0
 18 19  1  0
 19 20  1  0
 20 21  2  0
 21 22  1  0
 22 23  2  0
 17 24  1  0
 24 25  1  0
 25 26  2  0
 26 27  1  0
 27 28  2  0
 28 29  1  0
 29 30  2  0
 30 31  1  0
 31 32  1  0
 32 33  2  0
 33 34  1  0
 34 35  2  0
 35 36  1  0
 35 37  1  0
 37 38  2  0
 38 39  1  0
 30 40  1  0
 40 41  2  0
 40 42  1  0
 42 43  1  0
 42 44  1  0
 44 45  2  0
 23 19  1  0
 45 25  1  0
 44 28  1  0
 38 32  1  0
M  END

