
     RDKit          3D

 52 54  0  0  0  0  0  0  0  0999 V2000
    3.1425    4.4665   -1.4368 C   0  0  0  0  0  0  0  0  0  0  0  0
    3.1861    3.0577   -0.8660 C   0  0  0  0  0  0  0  0  0  0  0  0
    4.6398    2.5823   -0.6921 C   0  0  0  0  0  0  0  0  0  0  0  0
    2.4101    2.9779    0.4038 C   0  0  0  0  0  0  0  0  0  0  0  0
    2.4160    1.6314    1.0312 C   0  0  0  0  0  0  0  0  0  0  0  0
    1.8150    0.6300    0.1041 C   0  0  0  0  0  0  0  0  0  0  0  0
    1.4471    0.9095   -1.0597 O   0  0  0  0  0  0  0  0  0  0  0  0
    1.6471   -0.7065    0.5644 N   0  0  0  0  0  0  0  0  0  0  0  0
    0.9810   -1.7010   -0.4570 C   0  0  1  0  0  0  0  0  0  0  0  0
    0.8812   -2.9527    0.6131 C   0  0  0  0  0  0  0  0  0  0  0  0
    2.2677   -3.2649    0.9928 C   0  0  0  0  0  0  0  0  0  0  0  0
    2.3694   -4.3670    1.9721 C   0  0  0  0  0  0  0  0  0  0  0  0
    3.2357   -2.1766    1.1929 C   0  0  0  0  0  0  0  0  0  0  0  0
   -0.5352   -1.1984   -0.2391 C   0  0  0  0  0  0  0  0  0  0  0  0
   -0.6634    0.0078    0.1475 O   0  0  0  0  0  0  0  0  0  0  0  0
   -1.5959   -2.0669   -0.4681 N   0  0  0  0  0  0  0  0  0  0  0  0
   -2.9354   -1.4957   -0.2401 C   0  0  0  0  0  0  0  0  0  0  0  0
   -3.0984   -0.3148   -1.2102 C   0  0  0  0  0  0  0  0  0  0  0  0
   -4.4792    0.2400   -0.9625 C   0  0  0  0  0  0  0  0  0  0  0  0
   -4.6603    0.7340    0.4699 C   0  0  0  0  0  0  0  0  0  0  0  0
   -6.0958    1.2525    0.5523 C   0  0  0  0  0  0  0  0  0  0  0  0
   -6.3753    1.7551    1.8869 N   0  0  0  0  0  4  0  0  0  0  0  0
    4.4994   -0.2050   -2.4813 C   0  0  0  0  0  0  0  0  0  0  0  0
    4.5598    1.4067   -2.1048 C   0  0  2  0  0  0  0  0  0  0  0  0
    6.0638    1.3267   -1.4429 C   0  0  0  0  0  0  0  0  0  0  0  0
    5.9916    0.3893   -0.3457 N   0  0  0  0  0  0  0  0  0  0  0  0
    6.1876   -0.9112   -0.3430 N   0  0  0  0  0  0  0  0  0  0  0  0
    6.0114   -1.3525    0.9031 C   0  0  0  0  0  0  0  0  0  0  0  0
    5.7030   -0.2864    1.6582 N   0  0  0  0  0  0  0  0  0  0  0  0
    5.7026    0.7567    0.8518 N   0  0  0  0  0  0  0  0  0  0  0  0
    3.7916    1.2421   -0.7374 N   0  0  0  0  0  0  0  0  0  0  0  0
    2.4682    0.6932   -0.9092 C   0  0  0  0  0  0  0  0  0  0  0  0
    1.9645    0.3648   -2.1128 N   0  0  0  0  0  0  0  0  0  0  0  0
    0.7278   -0.1471   -2.2637 C   0  0  0  0  0  0  0  0  0  0  0  0
   -0.0875   -0.3595   -1.1716 C   0  0  0  0  0  0  0  0  0  0  0  0
   -1.3620   -0.8824   -1.2825 C   0  0  0  0  0  0  0  0  0  0  0  0
   -2.1386   -1.0761   -0.1597 C   0  0  0  0  0  0  0  0  0  0  0  0
   -3.4005   -1.5893   -0.2266 O   0  0  0  0  0  0  0  0  0  0  0  0
   -4.4586   -0.8158    0.2467 C   0  0  0  0  0  0  0  0  0  0  0  0
   -5.2394   -1.2800    1.2704 C   0  0  0  0  0  0  0  0  0  0  0  0
   -6.2880   -0.5432    1.7589 C   0  0  0  0  0  0  0  0  0  0  0  0
   -6.5736    0.6880    1.2207 C   0  0  0  0  0  0  0  0  0  0  0  0
   -7.6221    1.4297    1.7058 F   0  0  0  0  0  0  0  0  0  0  0  0
   -5.7853    1.1481    0.1927 C   0  0  0  0  0  0  0  0  0  0  0  0
   -4.7302    0.4048   -0.2975 C   0  0  0  0  0  0  0  0  0  0  0  0
   -3.9752    0.8841   -1.3071 F   0  0  0  0  0  0  0  0  0  0  0  0
   -1.6011   -0.7312    1.0721 C   0  0  0  0  0  0  0  0  0  0  0  0
   -2.3185   -0.9121    2.0902 O   0  0  0  0  0  0  0  0  0  0  0  0
   -0.3565   -0.2254    1.1340 N   0  0  0  0  0  0  0  0  0  0  0  0
    0.1669    0.1216    2.4403 C   0  0  0  0  0  0  0  0  0  0  0  0
    0.4287   -0.0230    0.0620 C   0  0  0  0  0  0  0  0  0  0  0  0
    1.6702    0.4843    0.1501 N   0  0  0  0  0  0  0  0  0  0  0  0
  1  2  1  0
  2  3  1  0
  2  4  1  0
  4  5  1  0
  5  6  1  0
  6  7  2  0
  6  8  1  0
  8  9  1  0
  9 10  1  1
 10 11  1  0
 11 12  1  0
 11 13  1  0
  9 14  1  0
 14 15  2  0
 14 16  1  0
 16 17  1  0
 17 18  1  0
 18 19  1  0
 19 20  1  0
 20 21  1  0
 21 22  1  0
 24 23  1  6
 24 25  1  0
 25 26  1  0
 26 27  1  0
 27 28  2  0
 28 29  1  0
 29 30  2  0
 24 31  1  0
 31 32  1  0
 32 33  2  0
 33 34  1  0
 34 35  2  0
 35 36  1  0
 36 37  2  0
 37 38  1  0
 38 39  1  0
 39 40  2  0
 40 41  1  0
 41 42  2  0
 42 43  1  0
 42 44  1  0
 44 45  2  0
 45 46  1  0
 37 47  1  0
 47 48  2  0
 47 49  1  0
 49 50  1  0
 49 51  1  0
 51 52  2  0
 30 26  1  0
 52 32  1  0
 51 35  1  0
 45 39  1  0
M  CHG  1  22   1
M  END

