
     RDKit          3D

 51 53  0  0  0  0  0  0  0  0999 V2000
   -4.4935    1.6292    0.7898 C   0  0  0  0  0  0  0  0  0  0  0  0
   -4.2310    2.3863   -0.4434 C   0  0  0  0  0  0  0  0  0  0  0  0
   -4.2102    1.3554   -1.7161 C   0  0  2  0  0  0  0  0  0  0  0  0
   -5.7599    0.8415   -1.4703 C   0  0  0  0  0  0  0  0  0  0  0  0
   -3.5504    0.1075   -0.8897 C   0  0  0  0  0  0  0  0  0  0  0  0
   -2.2444    0.6502   -0.4181 C   0  0  0  0  0  0  0  0  0  0  0  0
   -1.8485    1.8173   -0.6782 O   0  0  0  0  0  0  0  0  0  0  0  0
   -1.3749   -0.1211    0.3495 N   0  0  0  0  0  0  0  0  0  0  0  0
   -0.0179    0.5582    0.7891 C   0  0  1  0  0  0  0  0  0  0  0  0
    0.2432   -0.5052    2.0366 C   0  0  0  0  0  0  0  0  0  0  0  0
    0.3342   -1.8554    1.4639 C   0  0  0  0  0  0  0  0  0  0  0  0
    0.5796   -2.8292    2.6246 C   0  0  0  0  0  0  0  0  0  0  0  0
   -1.0140   -2.2701    0.9052 C   0  0  0  0  0  0  0  0  0  0  0  0
    0.9209   -0.1561   -0.2831 C   0  0  0  0  0  0  0  0  0  0  0  0
    0.5158   -0.9700   -1.0844 O   0  0  0  0  0  0  0  0  0  0  0  0
    2.2864    0.1754   -0.3016 N   0  0  0  0  0  0  0  0  0  0  0  0
    3.2657   -0.3866   -1.2083 C   0  0  0  0  0  0  0  0  0  0  0  0
    4.6348    0.1326   -1.0636 C   0  0  0  0  0  0  0  0  0  0  0  0
    5.1917   -0.1033    0.2825 C   0  0  0  0  0  0  0  0  0  0  0  0
    4.4155   -0.7503    1.2443 O   0  0  0  0  0  1  0  0  0  0  0  0
    6.3571    0.2937    0.5163 O   0  0  0  0  0  0  0  0  0  0  0  0
   -6.0194   -2.2476    1.1443 C   0  0  0  0  0  0  0  0  0  0  0  0
   -4.7070   -1.6407    1.9521 C   0  0  2  0  0  0  0  0  0  0  0  0
   -5.2772   -0.0947    1.9846 C   0  0  0  0  0  0  0  0  0  0  0  0
   -5.4688    0.3450    0.6518 N   0  0  0  0  0  0  0  0  0  0  0  0
   -4.6469    0.9646   -0.1945 N   0  0  0  0  0  0  0  0  0  0  0  0
   -5.2765    1.1837   -1.3633 C   0  0  0  0  0  0  0  0  0  0  0  0
   -6.5169    0.6884   -1.2385 N   0  0  0  0  0  0  0  0  0  0  0  0
   -6.5969    0.1979   -0.0291 N   0  0  0  0  0  0  0  0  0  0  0  0
   -3.8552   -1.4311    0.6401 N   0  0  0  0  0  0  0  0  0  0  0  0
   -2.5646   -0.8847    0.9306 C   0  0  0  0  0  0  0  0  0  0  0  0
   -2.1159   -0.5834    2.1400 N   0  0  0  0  0  0  0  0  0  0  0  0
   -0.9066   -0.0721    2.4056 C   0  0  0  0  0  0  0  0  0  0  0  0
   -0.0528    0.1639    1.3492 C   0  0  0  0  0  0  0  0  0  0  0  0
    1.2136    0.6895    1.5284 C   0  0  0  0  0  0  0  0  0  0  0  0
    1.9804    0.8837    0.4027 C   0  0  0  0  0  0  0  0  0  0  0  0
    3.2548    1.4116    0.5736 O   0  0  0  0  0  0  0  0  0  0  0  0
    4.3287    0.6365    0.1390 C   0  0  0  0  0  0  0  0  0  0  0  0
    4.1725   -0.5910   -0.4334 C   0  0  0  0  0  0  0  0  0  0  0  0
    5.2438   -1.3439   -0.8572 C   0  0  0  0  0  0  0  0  0  0  0  0
    6.5130   -0.8625   -0.7081 C   0  0  0  0  0  0  0  0  0  0  0  0
    7.6166   -1.5708   -1.1128 F   0  0  0  0  0  0  0  0  0  0  0  0
    6.6825    0.3772   -0.1307 C   0  0  0  0  0  0  0  0  0  0  0  0
    5.6011    1.1216    0.2898 C   0  0  0  0  0  0  0  0  0  0  0  0
    5.8490    2.3501    0.8569 F   0  0  0  0  0  0  0  0  0  0  0  0
    1.5111    0.5706   -0.8421 C   0  0  0  0  0  0  0  0  0  0  0  0
    2.2184    0.7500   -1.8773 O   0  0  0  0  0  0  0  0  0  0  0  0
    0.2843    0.0624   -1.0062 N   0  0  0  0  0  0  0  0  0  0  0  0
   -0.2401   -0.2803   -2.3256 C   0  0  0  0  0  0  0  0  0  0  0  0
   -0.4985   -0.1418    0.0838 C   0  0  0  0  0  0  0  0  0  0  0  0
   -1.7265   -0.6520   -0.0960 N   0  0  0  0  0  0  0  0  0  0  0  0
  1  2  1  0
  2  3  1  0
  3  4  1  1
  3  5  1  0
  5  6  1  0
  6  7  2  0
  6  8  1  0
  8  9  1  0
  9 10  1  1
 10 11  1  0
 11 12  1  0
 11 13  1  0
  9 14  1  0
 14 15  2  0
 14 16  1  0
 16 17  1  0
 17 18  1  0
 18 19  1  0
 19 20  1  0
 19 21  2  0
 23 22  1  6
 23 24  1  0
 24 25  1  0
 25 26  1  0
 26 27  2  0
 27 28  1  0
 28 29  2  0
 23 30  1  0
 30 31  1  0
 31 32  2  0
 32 33  1  0
 33 34  2  0
 34 35  1  0
 35 36  2  0
 36 37  1  0
 37 38  1  0
 38 39  2  0
 39 40  1  0
 40 41  2  0
 41 42  1  0
 41 43  1  0
 43 44  2  0
 44 45  1  0
 36 46  1  0
 46 47  2  0
 46 48  1  0
 48 49  1  0
 48 50  1  0
 50 51  2  0
 29 25  1  0
 51 31  1  0
 50 34  1  0
 44 38  1  0
M  RAD  1  20   2
M  END

