
     RDKit          3D

 49 51  0  0  0  0  0  0  0  0999 V2000
   -3.2582   -3.8172   -2.8847 C   0  0  0  0  0  0  0  0  0  0  0  0
   -2.6065   -3.8074   -1.5196 C   0  0  0  0  0  0  0  0  0  0  0  0
   -1.9122   -2.4870   -1.3605 C   0  0  0  0  0  0  0  0  0  0  0  0
   -1.9055   -1.6507   -2.2997 O   0  0  0  0  0  0  0  0  0  0  0  0
   -1.2394   -2.1192   -0.1639 N   0  0  0  0  0  0  0  0  0  0  0  0
   -0.5884   -0.6416   -0.2859 C   0  0  1  0  0  0  0  0  0  0  0  0
   -1.6210   -0.0822    0.9308 C   0  0  0  0  0  0  0  0  0  0  0  0
   -1.1975    1.3554    0.9873 C   0  0  0  0  0  0  0  0  0  0  0  0
   -1.3914    2.0533   -0.2880 C   0  0  0  0  0  0  0  0  0  0  0  0
   -1.0980    3.4247   -0.3393 O   0  0  0  0  0  1  0  0  0  0  0  0
   -1.8071    1.4652   -1.3174 O   0  0  0  0  0  0  0  0  0  0  0  0
    0.6342   -0.9665    0.6693 C   0  0  0  0  0  0  0  0  0  0  0  0
    0.7598   -1.9244    1.3559 O   0  0  0  0  0  0  0  0  0  0  0  0
    1.6207    0.0410    0.6217 N   0  0  0  0  0  0  0  0  0  0  0  0
    2.7962   -0.1233    1.4406 C   0  0  0  0  0  0  0  0  0  0  0  0
    3.7311    1.0044    1.1897 C   0  0  0  0  0  0  0  0  0  0  0  0
    3.1002    2.3224    1.5133 C   0  0  0  0  0  0  0  0  0  0  0  0
    1.8667    2.5605    0.6600 C   0  0  0  0  0  0  0  0  0  0  0  0
    4.1165    3.3925    1.0901 C   0  0  0  0  0  0  0  0  0  0  0  0
    6.5364   -0.1307   -1.5022 C   0  0  0  0  0  0  0  0  0  0  0  0
    5.1073    0.6326   -1.8541 C   0  0  2  0  0  0  0  0  0  0  0  0
    5.1564    1.6028   -0.5223 C   0  0  0  0  0  0  0  0  0  0  0  0
    5.1799    0.7884    0.6332 N   0  0  0  0  0  0  0  0  0  0  0  0
    4.1803    0.2966    1.3764 N   0  0  0  0  0  0  0  0  0  0  0  0
    4.6611   -0.4290    2.3854 C   0  0  0  0  0  0  0  0  0  0  0  0
    5.9870   -0.3958    2.2790 N   0  0  0  0  0  0  0  0  0  0  0  0
    6.2730    0.3368    1.2258 N   0  0  0  0  0  0  0  0  0  0  0  0
    4.2142   -0.4759   -1.1787 N   0  0  0  0  0  0  0  0  0  0  0  0
    2.8308   -0.1382   -1.2926 C   0  0  0  0  0  0  0  0  0  0  0  0
    2.3704    0.9719   -1.8939 N   0  0  0  0  0  0  0  0  0  0  0  0
    1.0788    1.3077   -2.0118 C   0  0  0  0  0  0  0  0  0  0  0  0
    0.1258    0.4648   -1.4829 C   0  0  0  0  0  0  0  0  0  0  0  0
   -1.2189    0.6989   -1.5405 C   0  0  0  0  0  0  0  0  0  0  0  0
   -2.1681   -0.1507   -1.0080 C   0  0  0  0  0  0  0  0  0  0  0  0
   -3.5275    0.1076   -1.0784 O   0  0  0  0  0  0  0  0  0  0  0  0
   -4.3470    0.2521    0.0186 C   0  0  0  0  0  0  0  0  0  0  0  0
   -3.9264    0.1595    1.3252 C   0  0  0  0  0  0  0  0  0  0  0  0
   -4.8423    0.3230    2.3515 C   0  0  0  0  0  0  0  0  0  0  0  0
   -6.1811    0.5789    2.1259 C   0  0  0  0  0  0  0  0  0  0  0  0
   -7.0516    0.7336    3.1679 F   0  0  0  0  0  0  0  0  0  0  0  0
   -6.5930    0.6699    0.8139 C   0  0  0  0  0  0  0  0  0  0  0  0
   -5.6847    0.5078   -0.2068 C   0  0  0  0  0  0  0  0  0  0  0  0
   -6.1415    0.6070   -1.4900 F   0  0  0  0  0  0  0  0  0  0  0  0
   -1.6873   -1.2878   -0.3926 C   0  0  0  0  0  0  0  0  0  0  0  0
   -2.4917   -2.1148    0.1190 O   0  0  0  0  0  0  0  0  0  0  0  0
   -0.3687   -1.5398   -0.3235 N   0  0  0  0  0  0  0  0  0  0  0  0
    0.1004   -2.7389    0.3275 C   0  0  0  0  0  0  0  0  0  0  0  0
    0.5568   -0.6846   -0.8579 C   0  0  0  0  0  0  0  0  0  0  0  0
    1.8715   -0.9537   -0.7788 N   0  0  0  0  0  0  0  0  0  0  0  0
  1  2  1  0
  2  3  1  0
  3  4  2  0
  3  5  1  0
  5  6  1  0
  6  7  1  1
  7  8  1  0
  8  9  1  0
  9 10  1  0
  9 11  2  0
  6 12  1  0
 12 13  2  0
 12 14  1  0
 14 15  1  0
 15 16  1  0
 16 17  1  0
 17 18  1  0
 17 19  1  0
 21 20  1  1
 21 22  1  0
 22 23  1  0
 23 24  1  0
 24 25  2  0
 25 26  1  0
 26 27  2  0
 21 28  1  0
 28 29  1  0
 29 30  2  0
 30 31  1  0
 31 32  2  0
 32 33  1  0
 33 34  2  0
 34 35  1  0
 35 36  1  0
 36 37  2  0
 37 38  1  0
 38 39  2  0
 39 40  1  0
 39 41  1  0
 41 42  2  0
 42 43  1  0
 34 44  1  0
 44 45  2  0
 44 46  1  0
 46 47  1  0
 46 48  1  0
 48 49  2  0
 27 23  1  0
 49 29  1  0
 48 32  1  0
 42 36  1  0
M  RAD  1  10   2
M  END

