
     RDKit          3D

 51 53  0  0  0  0  0  0  0  0999 V2000
    3.4642   -1.9816    1.7144 C   0  0  0  0  0  0  0  0  0  0  0  0
    4.2334   -0.9925    0.5636 C   0  0  1  0  0  0  0  0  0  0  0  0
    5.4711   -1.9678    0.6282 O   0  0  0  0  0  0  0  0  0  0  0  0
    3.6029   -1.8265   -0.7102 C   0  0  0  0  0  0  0  0  0  0  0  0
    2.4849   -1.0713   -1.0793 N   0  0  0  0  0  0  0  0  0  0  0  0
    1.3761   -0.8150   -0.2737 C   0  0  0  0  0  0  0  0  0  0  0  0
    1.1959   -1.1956    0.8467 O   0  0  0  0  0  0  0  0  0  0  0  0
    0.2478    0.1180   -1.0125 C   0  0  2  0  0  0  0  0  0  0  0  0
    1.0392    1.5321   -0.6336 C   0  0  0  0  0  0  0  0  0  0  0  0
    0.1972    2.6208   -1.2304 C   0  0  0  0  0  0  0  0  0  0  0  0
    0.8392    3.9134   -0.9202 C   0  0  0  0  0  0  0  0  0  0  0  0
    0.5168    5.1571   -1.5228 N   0  0  0  0  0  0  0  0  0  0  0  0
    1.7594    3.9375   -0.0414 O   0  0  0  0  0  0  0  0  0  0  0  0
   -0.7181    0.1966    0.2334 N   0  0  0  0  0  0  0  0  0  0  0  0
   -1.8605   -0.6429    0.1865 C   0  0  0  0  0  0  0  0  0  0  0  0
   -2.0055   -1.3689   -0.8288 O   0  0  0  0  0  0  0  0  0  0  0  0
   -2.8366   -0.6463    1.3130 C   0  0  0  0  0  0  0  0  0  0  0  0
   -3.9783   -1.5727    1.0934 C   0  0  0  0  0  0  0  0  0  0  0  0
   -4.7463   -1.1979   -0.1373 C   0  0  0  0  0  0  0  0  0  0  0  0
   -5.8783   -1.9822   -0.4960 N   0  0  0  0  0  0  0  0  0  0  0  0
   -4.4045   -0.2142   -0.8428 O   0  0  0  0  0  0  0  0  0  0  0  0
    3.3953    0.8620   -1.4301 C   0  0  0  0  0  0  0  0  0  0  0  0
    4.2473    1.6333   -0.2480 C   0  0  2  0  0  0  0  0  0  0  0  0
    5.7084    1.0929   -0.7537 C   0  0  0  0  0  0  0  0  0  0  0  0
    5.7127   -0.3230   -0.7173 N   0  0  0  0  0  0  0  0  0  0  0  0
    6.0387   -1.1774    0.2135 N   0  0  0  0  0  0  0  0  0  0  0  0
    5.8794   -2.4328   -0.2125 C   0  0  0  0  0  0  0  0  0  0  0  0
    5.4305   -2.3318   -1.4757 N   0  0  0  0  0  0  0  0  0  0  0  0
    5.3343   -1.0699   -1.7679 N   0  0  0  0  0  0  0  0  0  0  0  0
    4.0238    0.4919    0.8074 N   0  0  0  0  0  0  0  0  0  0  0  0
    2.6331    0.2721    1.0807 C   0  0  0  0  0  0  0  0  0  0  0  0
    2.2530   -0.6701    1.9620 N   0  0  0  0  0  0  0  0  0  0  0  0
    0.9406   -0.8894    2.2307 C   0  0  0  0  0  0  0  0  0  0  0  0
   -0.0509   -0.1678    1.6223 C   0  0  0  0  0  0  0  0  0  0  0  0
   -1.4009   -0.3146    1.8267 C   0  0  0  0  0  0  0  0  0  0  0  0
   -2.2946    0.4827    1.1439 C   0  0  0  0  0  0  0  0  0  0  0  0
   -3.6348    0.3261    1.3568 O   0  0  0  0  0  0  0  0  0  0  0  0
   -4.4274   -0.0202    0.2566 C   0  0  0  0  0  0  0  0  0  0  0  0
   -5.4555    0.7920   -0.1619 C   0  0  0  0  0  0  0  0  0  0  0  0
   -6.2152    0.4160   -1.2517 C   0  0  0  0  0  0  0  0  0  0  0  0
   -5.9773   -0.7473   -1.9347 C   0  0  0  0  0  0  0  0  0  0  0  0
   -6.7617   -1.0532   -2.9940 F   0  0  0  0  0  0  0  0  0  0  0  0
   -4.9455   -1.5511   -1.5056 C   0  0  0  0  0  0  0  0  0  0  0  0
   -4.1785   -1.1857   -0.4168 C   0  0  0  0  0  0  0  0  0  0  0  0
   -3.1564   -1.9623    0.0240 F   0  0  0  0  0  0  0  0  0  0  0  0
   -1.8628    1.4366    0.2492 C   0  0  0  0  0  0  0  0  0  0  0  0
   -2.6531    2.1760   -0.3858 O   0  0  0  0  0  0  0  0  0  0  0  0
   -0.5222    1.5736    0.0543 N   0  0  0  0  0  0  0  0  0  0  0  0
   -0.0419    2.5751   -0.8864 C   0  0  0  0  0  0  0  0  0  0  0  0
    0.3415    0.8010    0.7160 C   0  0  0  0  0  0  0  0  0  0  0  0
    1.6399    0.9654    0.4982 N   0  0  0  0  0  0  0  0  0  0  0  0
  2  1  1  1
  2  3  1  0
  2  4  1  0
  4  5  1  0
  5  6  1  0
  6  7  2  0
  6  8  1  0
  8  9  1  1
  9 10  1  0
 10 11  1  0
 11 12  1  0
 11 13  2  0
  8 14  1  0
 14 15  1  0
 15 16  2  0
 15 17  1  0
 17 18  1  0
 18 19  1  0
 19 20  1  0
 19 21  2  0
 23 22  1  6
 23 24  1  0
 24 25  1  0
 25 26  1  0
 26 27  2  0
 27 28  1  0
 28 29  2  0
 23 30  1  0
 30 31  1  0
 31 32  2  0
 32 33  1  0
 33 34  2  0
 34 35  1  0
 35 36  2  0
 36 37  1  0
 37 38  1  0
 38 39  2  0
 39 40  1  0
 40 41  2  0
 41 42  1  0
 41 43  1  0
 43 44  2  0
 44 45  1  0
 36 46  1  0
 46 47  2  0
 46 48  1  0
 48 49  1  0
 48 50  1  0
 50 51  2  0
 29 25  1  0
 51 31  1  0
 50 34  1  0
 44 38  1  0
M  END

