
     RDKit          3D

 59 62  0  0  0  0  0  0  0  0999 V2000
   -3.8827   -1.8827   -0.4338 C   0  0  0  0  0  0  0  0  0  0  0  0
   -4.3514   -1.5081    1.1110 C   0  0  2  0  0  0  0  0  0  0  0  0
   -5.9606   -1.5152    0.7526 C   0  0  0  0  0  0  0  0  0  0  0  0
   -6.1899   -0.5352   -0.2496 N   0  0  0  0  0  0  0  0  0  0  0  0
   -6.1685   -0.6259   -1.5733 N   0  0  0  0  0  0  0  0  0  0  0  0
   -6.4513    0.5827   -2.0899 C   0  0  0  0  0  0  0  0  0  0  0  0
   -6.6465    1.4164   -1.0554 N   0  0  0  0  0  0  0  0  0  0  0  0
   -6.4834    0.7192    0.0283 N   0  0  0  0  0  0  0  0  0  0  0  0
   -4.1424    0.0410    0.9034 N   0  0  0  0  0  0  0  0  0  0  0  0
   -2.7836    0.3285    0.5720 C   0  0  0  0  0  0  0  0  0  0  0  0
   -2.3700    1.6054    0.3473 N   0  0  0  0  0  0  0  0  0  0  0  0
   -1.1226    1.9346    0.0363 C   0  0  0  0  0  0  0  0  0  0  0  0
   -0.1544    0.9232   -0.0731 C   0  0  0  0  0  0  0  0  0  0  0  0
    1.1269    1.2017   -0.3857 C   0  0  0  0  0  0  0  0  0  0  0  0
    2.0994    0.1459   -0.4913 C   0  0  0  0  0  0  0  0  0  0  0  0
    3.3230    0.5325   -0.8052 O   0  0  0  0  0  0  0  0  0  0  0  0
    4.5322    0.5587   -0.2605 C   0  0  0  0  0  0  0  0  0  0  0  0
    4.9982    1.9018   -0.0510 C   0  0  0  0  0  0  0  0  0  0  0  0
    6.1981    2.1590    0.4874 C   0  0  0  0  0  0  0  0  0  0  0  0
    7.0289    1.1595    0.8598 C   0  0  0  0  0  0  0  0  0  0  0  0
    8.2434    1.4452    1.4054 F   0  0  0  0  0  0  0  0  0  0  0  0
    6.6167   -0.1372    0.6738 C   0  0  0  0  0  0  0  0  0  0  0  0
    5.3821   -0.4311    0.1192 C   0  0  0  0  0  0  0  0  0  0  0  0
    5.0923   -1.7231   -0.0474 F   0  0  0  0  0  0  0  0  0  0  0  0
    1.6712   -1.1124   -0.2668 C   0  0  0  0  0  0  0  0  0  0  0  0
    2.4160   -2.1262   -0.3315 O   0  0  0  0  0  0  0  0  0  0  0  0
    0.3636   -1.3301    0.0461 N   0  0  0  0  0  0  0  0  0  0  0  0
    0.0005   -2.7479    0.2739 C   0  0  0  0  0  0  0  0  0  0  0  0
   -0.5538   -0.3693    0.1501 C   0  0  0  0  0  0  0  0  0  0  0  0
   -1.8313   -0.6108    0.4586 N   0  0  0  0  0  0  0  0  0  0  0  0
   -2.3204    5.7614    2.2224 N   0  0  0  0  0  0  0  0  0  0  0  0
   -1.1537    5.1809    1.6412 C   0  0  0  0  0  0  0  0  0  0  0  0
   -0.5567    5.8544    0.6976 N   0  0  0  0  0  4  0  0  0  0  0  0
   -0.6322    3.9248    2.0459 N   0  0  0  0  0  0  0  0  0  0  0  0
    0.5695    3.4452    1.3690 C   0  0  0  0  0  0  0  0  0  0  0  0
    0.2079    3.3305   -0.0974 C   0  0  0  0  0  0  0  0  0  0  0  0
   -0.9369    2.3466   -0.2261 C   0  0  0  0  0  0  0  0  0  0  0  0
   -0.3044    0.9482    0.3996 C   0  0  2  0  0  0  0  0  0  0  0  0
    0.8372    0.8941   -0.6504 N   0  0  0  0  0  0  0  0  0  0  0  0
    1.4523   -0.3737   -0.8641 C   0  0  0  0  0  0  0  0  0  0  0  0
    1.0572   -1.3571   -0.2145 O   0  0  0  0  0  0  0  0  0  0  0  0
    2.5178   -0.3416   -1.8706 C   0  0  0  0  0  0  0  0  0  0  0  0
    3.1939   -1.6096   -2.1884 C   0  0  0  0  0  0  0  0  0  0  0  0
    3.8392   -2.1547   -0.9719 C   0  0  0  0  0  0  0  0  0  0  0  0
    5.1298   -1.8144   -0.6005 C   0  0  0  0  0  0  0  0  0  0  0  0
    5.7816   -2.2955    0.4990 C   0  0  0  0  0  0  0  0  0  0  0  0
    5.1280   -3.1914    1.3214 C   0  0  0  0  0  0  0  0  0  0  0  0
    5.7221   -3.7215    2.4517 O   0  0  0  0  0  0  0  0  0  0  0  0
    3.8327   -3.5568    0.9823 C   0  0  0  0  0  0  0  0  0  0  0  0
    3.1902   -3.0589   -0.1344 C   0  0  0  0  0  0  0  0  0  0  0  0
   -1.3183    0.0121   -0.3858 C   0  0  0  0  0  0  0  0  0  0  0  0
   -1.0790   -0.4962   -1.4571 O   0  0  0  0  0  0  0  0  0  0  0  0
   -2.5769   -0.1872    0.2960 N   0  0  0  0  0  0  0  0  0  0  0  0
   -3.5183   -1.0400   -0.3981 C   0  0  0  0  0  0  0  0  0  0  0  0
   -3.8485   -0.4511   -1.7555 C   0  0  0  0  0  0  0  0  0  0  0  0
   -4.8334   -1.3805   -2.4329 C   0  0  0  0  0  0  0  0  0  0  0  0
   -6.0637   -1.4968   -1.6304 C   0  0  0  0  0  0  0  0  0  0  0  0
   -7.1427   -2.3413   -1.9936 N   0  0  0  0  0  0  0  0  0  0  0  0
   -6.1745   -0.8298   -0.5869 O   0  0  0  0  0  0  0  0  0  0  0  0
  2  1  1  6
  2  3  1  0
  3  4  1  0
  4  5  1  0
  5  6  2  0
  6  7  1  0
  7  8  2  0
  2  9  1  0
  9 10  1  0
 10 11  2  0
 11 12  1  0
 12 13  2  0
 13 14  1  0
 14 15  2  0
 15 16  1  0
 16 17  1  0
 17 18  2  0
 18 19  1  0
 19 20  2  0
 20 21  1  0
 20 22  1  0
 22 23  2  0
 23 24  1  0
 15 25  1  0
 25 26  2  0
 25 27  1  0
 27 28  1  0
 27 29  1  0
 29 30  2  0
 31 32  1  0
 32 33  2  0
 32 34  1  0
 34 35  1  0
 35 36  1  0
 36 37  1  0
 38 37  1  6
 38 39  1  0
 39 40  1  0
 40 41  2  0
 40 42  1  0
 42 43  1  0
 43 44  1  0
 44 45  2  0
 45 46  1  0
 46 47  2  0
 47 48  1  0
 47 49  1  0
 49 50  2  0
 38 51  1  0
 51 52  2  0
 51 53  1  0
 53 54  1  0
 54 55  1  0
 55 56  1  0
 56 57  1  0
 57 58  1  0
 57 59  2  0
  8  4  1  0
 30 10  1  0
 50 44  1  0
 29 13  1  0
 23 17  1  0
M  CHG  1  33   1
M  END

