
     RDKit          3D

 50 52  0  0  0  0  0  0  0  0999 V2000
   -3.7575   -1.2440   -2.6332 C   0  0  0  0  0  0  0  0  0  0  0  0
   -4.0936   -1.7724   -1.2522 C   0  0  0  0  0  0  0  0  0  0  0  0
   -5.1177   -0.9097   -0.5556 C   0  0  0  0  0  0  0  0  0  0  0  0
   -2.8458   -1.9651   -0.4232 C   0  0  0  0  0  0  0  0  0  0  0  0
   -2.0853   -0.6878   -0.2330 C   0  0  0  0  0  0  0  0  0  0  0  0
   -2.6129    0.3239   -0.7908 O   0  0  0  0  0  0  0  0  0  0  0  0
   -0.8747   -0.6287    0.5131 N   0  0  0  0  0  0  0  0  0  0  0  0
   -0.3320    0.8424    0.5235 C   0  0  1  0  0  0  0  0  0  0  0  0
   -0.3409    1.0675    2.1619 C   0  0  0  0  0  0  0  0  0  0  0  0
   -1.6612    0.9177    2.6922 C   0  0  0  0  0  0  0  0  0  0  0  0
   -2.7554    1.7928    2.2412 C   0  0  0  0  0  0  0  0  0  0  0  0
   -1.8687    0.1584    3.9480 C   0  0  0  0  0  0  0  0  0  0  0  0
    1.2211    0.4816    0.4275 C   0  0  0  0  0  0  0  0  0  0  0  0
    1.5108   -0.7215    0.3781 O   0  0  0  0  0  0  0  0  0  0  0  0
    2.1560    1.5283    0.4048 N   0  0  0  0  0  0  0  0  0  0  0  0
    3.5677    1.1626    0.3162 C   0  0  0  0  0  0  0  0  0  0  0  0
    3.6511    0.3954   -0.9924 C   0  0  0  0  0  0  0  0  0  0  0  0
    5.0131   -0.0750   -1.2848 C   0  0  0  0  0  0  0  0  0  0  0  0
    5.2198   -0.7908   -2.4542 O   0  0  0  0  0  1  0  0  0  0  0  0
    6.0060    0.1242   -0.5511 O   0  0  0  0  0  0  0  0  0  0  0  0
    5.5018   -0.2599   -2.0445 C   0  0  0  0  0  0  0  0  0  0  0  0
    4.0085    0.1454   -1.3960 C   0  0  2  0  0  0  0  0  0  0  0  0
    4.5806    0.0948    0.1793 C   0  0  0  0  0  0  0  0  0  0  0  0
    5.6077    1.0510    0.2580 N   0  0  0  0  0  0  0  0  0  0  0  0
    6.8857    0.8231    0.0158 N   0  0  0  0  0  0  0  0  0  0  0  0
    7.5831    1.9608    0.1865 C   0  0  0  0  0  0  0  0  0  0  0  0
    6.7097    2.8978    0.5394 N   0  0  0  0  0  0  0  0  0  0  0  0
    5.5223    2.3205    0.5751 N   0  0  0  0  0  0  0  0  0  0  0  0
    3.5542   -1.3638   -1.3519 N   0  0  0  0  0  0  0  0  0  0  0  0
    2.2673   -1.5826   -0.8465 C   0  0  0  0  0  0  0  0  0  0  0  0
    1.7208   -2.8253   -0.7397 N   0  0  0  0  0  0  0  0  0  0  0  0
    0.4826   -2.9670   -0.2469 C   0  0  0  0  0  0  0  0  0  0  0  0
   -0.2643   -1.8815    0.1602 C   0  0  0  0  0  0  0  0  0  0  0  0
   -1.5423   -1.9806    0.6733 C   0  0  0  0  0  0  0  0  0  0  0  0
   -2.2233   -0.8397    1.0587 C   0  0  0  0  0  0  0  0  0  0  0  0
   -3.5164   -0.9206    1.5796 O   0  0  0  0  0  0  0  0  0  0  0  0
   -4.5286   -0.2595    0.9087 C   0  0  0  0  0  0  0  0  0  0  0  0
   -5.2509    0.7174    1.5321 C   0  0  0  0  0  0  0  0  0  0  0  0
   -6.2760    1.3902    0.8598 C   0  0  0  0  0  0  0  0  0  0  0  0
   -6.5299    1.0331   -0.4490 C   0  0  0  0  0  0  0  0  0  0  0  0
   -7.5294    1.6823   -1.1190 F   0  0  0  0  0  0  0  0  0  0  0  0
   -5.8054    0.0411   -1.1005 C   0  0  0  0  0  0  0  0  0  0  0  0
   -4.7954   -0.6097   -0.4120 C   0  0  0  0  0  0  0  0  0  0  0  0
   -4.0472   -1.5842   -0.9758 F   0  0  0  0  0  0  0  0  0  0  0  0
   -1.6247    0.4056    0.9309 C   0  0  0  0  0  0  0  0  0  0  0  0
   -2.2326    1.4672    1.2790 O   0  0  0  0  0  0  0  0  0  0  0  0
   -0.3898    0.4729    0.4324 N   0  0  0  0  0  0  0  0  0  0  0  0
    0.3103    1.7540    0.2665 C   0  0  0  0  0  0  0  0  0  0  0  0
    0.2860   -0.6288    0.0529 C   0  0  0  0  0  0  0  0  0  0  0  0
    1.5358   -0.5539   -0.4510 N   0  0  0  0  0  0  0  0  0  0  0  0
  1  2  1  0
  2  3  1  0
  2  4  1  0
  4  5  1  0
  5  6  2  0
  5  7  1  0
  7  8  1  0
  8  9  1  1
  9 10  1  0
 10 11  1  0
 10 12  1  0
  8 13  1  0
 13 14  2  0
 13 15  1  0
 15 16  1  0
 16 17  1  0
 17 18  1  0
 18 19  1  0
 18 20  2  0
 22 21  1  6
 22 23  1  0
 23 24  1  0
 24 25  1  0
 25 26  2  0
 26 27  1  0
 27 28  2  0
 22 29  1  0
 29 30  1  0
 30 31  2  0
 31 32  1  0
 32 33  2  0
 33 34  1  0
 34 35  2  0
 35 36  1  0
 36 37  1  0
 37 38  2  0
 38 39  1  0
 39 40  2  0
 40 41  1  0
 40 42  1  0
 42 43  2  0
 43 44  1  0
 35 45  1  0
 45 46  2  0
 45 47  1  0
 47 48  1  0
 47 49  1  0
 49 50  2  0
 28 24  1  0
 50 30  1  0
 49 33  1  0
 43 37  1  0
M  RAD  1  19   2
M  END

