
     RDKit          3D

 47 49  0  0  0  0  0  0  0  0999 V2000
    4.8946   -1.8460    0.2404 C   0  0  0  0  0  0  0  0  0  0  0  0
    4.8723   -0.5043    0.8259 C   0  0  0  0  0  0  0  0  0  0  0  0
    5.9364    0.4312    0.4474 C   0  0  0  0  0  0  0  0  0  0  0  0
    3.5933    0.0491    1.2750 C   0  0  0  0  0  0  0  0  0  0  0  0
    2.6164    0.1363    0.1314 C   0  0  0  0  0  0  0  0  0  0  0  0
    2.9565   -0.2378   -1.0374 O   0  0  0  0  0  0  0  0  0  0  0  0
    1.3012    0.6211    0.2731 N   0  0  0  0  0  0  0  0  0  0  0  0
    0.4168    0.6379   -1.0025 C   0  0  1  0  0  0  0  0  0  0  0  0
    0.7855   -0.8952   -1.4526 C   0  0  0  0  0  0  0  0  0  0  0  0
   -0.9447    0.2755   -0.2960 C   0  0  0  0  0  0  0  0  0  0  0  0
   -1.0679    0.6039    0.8953 O   0  0  0  0  0  0  0  0  0  0  0  0
   -1.9629   -0.3802   -0.9622 N   0  0  0  0  0  0  0  0  0  0  0  0
   -3.1838   -0.6875   -0.2449 C   0  0  0  0  0  0  0  0  0  0  0  0
   -3.8200    0.5884    0.2356 C   0  0  0  0  0  0  0  0  0  0  0  0
   -5.0606    0.4395    0.9707 C   0  0  0  0  0  0  0  0  0  0  0  0
   -5.6768   -0.7431    1.3472 O   0  0  0  0  0  1  0  0  0  0  0  0
   -5.6562    1.5112    1.3251 O   0  0  0  0  0  0  0  0  0  0  0  0
    4.7308   -0.4912   -1.0882 C   0  0  0  0  0  0  0  0  0  0  0  0
    4.9023    0.8687   -0.1708 C   0  0  2  0  0  0  0  0  0  0  0  0
    6.0092    0.1427    0.8340 C   0  0  0  0  0  0  0  0  0  0  0  0
    7.0989   -0.2319   -0.0504 N   0  0  0  0  0  0  0  0  0  0  0  0
    7.2804   -1.3569   -0.7252 N   0  0  0  0  0  0  0  0  0  0  0  0
    8.4348   -1.2255   -1.3999 C   0  0  0  0  0  0  0  0  0  0  0  0
    8.9227   -0.0121   -1.1104 N   0  0  0  0  0  0  0  0  0  0  0  0
    8.1157    0.5929   -0.2929 N   0  0  0  0  0  0  0  0  0  0  0  0
    3.7176    0.5462    0.8065 N   0  0  0  0  0  0  0  0  0  0  0  0
    2.4372    0.4063    0.2753 C   0  0  0  0  0  0  0  0  0  0  0  0
    2.1175    0.5249   -1.0247 N   0  0  0  0  0  0  0  0  0  0  0  0
    0.8394    0.3669   -1.4144 C   0  0  0  0  0  0  0  0  0  0  0  0
   -0.1817    0.0795   -0.5008 C   0  0  0  0  0  0  0  0  0  0  0  0
   -1.4706   -0.0833   -0.8640 C   0  0  0  0  0  0  0  0  0  0  0  0
   -2.4875   -0.3781    0.1135 C   0  0  0  0  0  0  0  0  0  0  0  0
   -3.7275   -0.5275   -0.3010 O   0  0  0  0  0  0  0  0  0  0  0  0
   -4.9883   -0.1359   -0.3047 C   0  0  0  0  0  0  0  0  0  0  0  0
   -5.5341    0.3301   -1.5508 C   0  0  0  0  0  0  0  0  0  0  0  0
   -6.8052    0.7534   -1.6720 C   0  0  0  0  0  0  0  0  0  0  0  0
   -7.6809    0.7728   -0.6130 C   0  0  0  0  0  0  0  0  0  0  0  0
   -8.9683    1.2094   -0.7534 F   0  0  0  0  0  0  0  0  0  0  0  0
   -7.1870    0.3337    0.5827 C   0  0  0  0  0  0  0  0  0  0  0  0
   -5.8749   -0.1109    0.7381 C   0  0  0  0  0  0  0  0  0  0  0  0
   -5.5163   -0.5500    1.9924 F   0  0  0  0  0  0  0  0  0  0  0  0
   -2.0154   -0.4687    1.3834 C   0  0  0  0  0  0  0  0  0  0  0  0
   -2.7862   -0.7216    2.3223 O   0  0  0  0  0  0  0  0  0  0  0  0
   -0.7241   -0.3084    1.7713 N   0  0  0  0  0  0  0  0  0  0  0  0
   -0.3057   -0.4230    3.1616 C   0  0  0  0  0  0  0  0  0  0  0  0
    0.1784   -0.0356    0.8231 C   0  0  0  0  0  0  0  0  0  0  0  0
    1.4687    0.1329    1.1484 N   0  0  0  0  0  0  0  0  0  0  0  0
  1  2  1  0
  2  3  1  0
  2  4  1  0
  4  5  1  0
  5  6  2  0
  5  7  1  0
  7  8  1  0
  8  9  1  6
  8 10  1  0
 10 11  2  0
 10 12  1  0
 12 13  1  0
 13 14  1  0
 14 15  1  0
 15 16  1  0
 15 17  2  0
 19 18  1  6
 19 20  1  0
 20 21  1  0
 21 22  1  0
 22 23  2  0
 23 24  1  0
 24 25  2  0
 19 26  1  0
 26 27  1  0
 27 28  2  0
 28 29  1  0
 29 30  2  0
 30 31  1  0
 31 32  2  0
 32 33  1  0
 33 34  1  0
 34 35  2  0
 35 36  1  0
 36 37  2  0
 37 38  1  0
 37 39  1  0
 39 40  2  0
 40 41  1  0
 32 42  1  0
 42 43  2  0
 42 44  1  0
 44 45  1  0
 44 46  1  0
 46 47  2  0
 25 21  1  0
 47 27  1  0
 46 30  1  0
 40 34  1  0
M  RAD  1  16   2
M  END

