
     RDKit          3D

 54 57  0  0  0  0  0  0  0  0999 V2000
   -4.7013    3.6665    1.2104 C   0  0  0  0  0  0  0  0  0  0  0  0
   -3.2800    3.9034    1.5142 C   0  0  0  0  0  0  0  0  0  0  0  0
   -2.3501    2.8427    0.6878 C   0  0  2  0  0  0  0  0  0  0  0  0
   -2.8978    3.3601   -0.7995 C   0  0  0  0  0  0  0  0  0  0  0  0
   -3.4327    1.6156    0.7678 C   0  0  0  0  0  0  0  0  0  0  0  0
   -2.8370    0.4901    0.0887 N   0  0  0  0  0  0  0  0  0  0  0  0
   -1.6482   -0.1413    0.4486 C   0  0  0  0  0  0  0  0  0  0  0  0
   -1.0048    0.2282    1.3960 O   0  0  0  0  0  0  0  0  0  0  0  0
   -1.2483   -1.3539   -0.4835 C   0  0  2  0  0  0  0  0  0  0  0  0
   -2.3108   -2.4287    0.2555 C   0  0  0  0  0  0  0  0  0  0  0  0
   -2.1347   -3.7017   -0.4588 C   0  0  0  0  0  0  0  0  0  0  0  0
   -0.8091   -4.3373   -0.4636 C   0  0  0  0  0  0  0  0  0  0  0  0
   -3.1007   -4.0610   -1.5157 C   0  0  0  0  0  0  0  0  0  0  0  0
   -0.0264   -1.8636    0.3512 N   0  0  0  0  0  0  0  0  0  0  0  0
    1.2337   -1.6365   -0.2232 C   0  0  0  0  0  0  0  0  0  0  0  0
    1.2738   -1.0619   -1.3196 O   0  0  0  0  0  0  0  0  0  0  0  0
    2.5097   -2.0497    0.4144 C   0  0  0  0  0  0  0  0  0  0  0  0
    3.7124   -1.5641   -0.3137 C   0  0  0  0  0  0  0  0  0  0  0  0
    3.7521   -0.0842   -0.3453 C   0  0  0  0  0  0  0  0  0  0  0  0
    4.3147    0.6424    0.7116 C   0  0  0  0  0  0  0  0  0  0  0  0
    4.4037    2.0082    0.7349 C   0  0  0  0  0  0  0  0  0  0  0  0
    3.9256    2.7613   -0.3188 C   0  0  0  0  0  0  0  0  0  0  0  0
    3.3690    2.0635   -1.3689 C   0  0  0  0  0  0  0  0  0  0  0  0
    3.2872    0.7016   -1.3751 C   0  0  0  0  0  0  0  0  0  0  0  0
   -4.8407   -1.9212    0.3441 C   0  0  0  0  0  0  0  0  0  0  0  0
   -4.9190   -0.3896    1.0339 C   0  0  2  0  0  0  0  0  0  0  0  0
   -6.1001    0.0815   -0.0615 C   0  0  0  0  0  0  0  0  0  0  0  0
   -6.3842    1.4503    0.3130 N   0  0  0  0  0  0  0  0  0  0  0  0
   -5.7163    2.4801   -0.2179 N   0  0  0  0  0  0  0  0  0  0  0  0
   -6.1963    3.6225    0.3186 C   0  0  0  0  0  0  0  0  0  0  0  0
   -7.1616    3.2504    1.1777 N   0  0  0  0  0  0  0  0  0  0  0  0
   -7.2589    1.9363    1.1594 N   0  0  0  0  0  0  0  0  0  0  0  0
   -3.7594    0.2074    0.1409 N   0  0  0  0  0  0  0  0  0  0  0  0
   -2.4961   -0.3618    0.2047 C   0  0  0  0  0  0  0  0  0  0  0  0
   -2.1980   -1.4065    0.9934 N   0  0  0  0  0  0  0  0  0  0  0  0
   -0.9478   -1.9264    1.0197 C   0  0  0  0  0  0  0  0  0  0  0  0
    0.0394   -1.3786    0.2259 C   0  0  0  0  0  0  0  0  0  0  0  0
    1.3244   -1.8318    0.1838 C   0  0  0  0  0  0  0  0  0  0  0  0
    2.2766   -1.2485   -0.6286 C   0  0  0  0  0  0  0  0  0  0  0  0
    3.5356   -1.7881   -0.5886 O   0  0  0  0  0  0  0  0  0  0  0  0
    4.6908   -1.1295   -0.2277 C   0  0  0  0  0  0  0  0  0  0  0  0
    5.7845   -0.9721   -1.0558 C   0  0  0  0  0  0  0  0  0  0  0  0
    6.9101   -0.2971   -0.6208 C   0  0  0  0  0  0  0  0  0  0  0  0
    7.0111    0.2507    0.6410 C   0  0  0  0  0  0  0  0  0  0  0  0
    8.1237    0.9088    1.0482 F   0  0  0  0  0  0  0  0  0  0  0  0
    5.9182    0.0933    1.4682 C   0  0  0  0  0  0  0  0  0  0  0  0
    4.7867   -0.5833    1.0356 C   0  0  0  0  0  0  0  0  0  0  0  0
    3.7189   -0.7237    1.8773 F   0  0  0  0  0  0  0  0  0  0  0  0
    1.9116   -0.1867   -1.4097 C   0  0  0  0  0  0  0  0  0  0  0  0
    2.7865    0.3414   -2.1495 O   0  0  0  0  0  0  0  0  0  0  0  0
    0.6533    0.2672   -1.3771 N   0  0  0  0  0  0  0  0  0  0  0  0
    0.3051    1.3972   -2.2218 C   0  0  0  0  0  0  0  0  0  0  0  0
   -0.2718   -0.3005   -0.5870 C   0  0  0  0  0  0  0  0  0  0  0  0
   -1.5264    0.1585   -0.5600 N   0  0  0  0  0  0  0  0  0  0  0  0
  1  2  1  0
  2  3  1  0
  3  4  1  6
  3  5  1  0
  5  6  1  0
  6  7  1  0
  7  8  2  0
  7  9  1  0
  9 10  1  1
 10 11  1  0
 11 12  1  0
 11 13  1  0
  9 14  1  0
 14 15  1  0
 15 16  2  0
 15 17  1  0
 17 18  1  0
 18 19  1  0
 19 20  2  0
 20 21  1  0
 21 22  2  0
 22 23  1  0
 23 24  2  0
 26 25  1  6
 26 27  1  0
 27 28  1  0
 28 29  1  0
 29 30  2  0
 30 31  1  0
 31 32  2  0
 26 33  1  0
 33 34  1  0
 34 35  2  0
 35 36  1  0
 36 37  2  0
 37 38  1  0
 38 39  2  0
 39 40  1  0
 40 41  1  0
 41 42  2  0
 42 43  1  0
 43 44  2  0
 44 45  1  0
 44 46  1  0
 46 47  2  0
 47 48  1  0
 39 49  1  0
 49 50  2  0
 49 51  1  0
 51 52  1  0
 51 53  1  0
 53 54  2  0
 24 19  1  0
 32 28  1  0
 54 34  1  0
 53 37  1  0
 47 41  1  0
M  END

