
     RDKit          3D

 58 62  0  0  0  0  0  0  0  0999 V2000
   -3.5765    1.6976   -0.3875 C   0  0  0  0  0  0  0  0  0  0  0  0
   -4.3381    0.8396   -1.5836 C   0  0  2  0  0  0  0  0  0  0  0  0
   -5.8379    1.0371   -0.9271 C   0  0  0  0  0  0  0  0  0  0  0  0
   -5.8369    0.4730    0.3723 N   0  0  0  0  0  0  0  0  0  0  0  0
   -6.1504   -0.7911    0.6122 N   0  0  0  0  0  0  0  0  0  0  0  0
   -6.0660   -1.0453    1.9085 C   0  0  0  0  0  0  0  0  0  0  0  0
   -5.6883    0.1009    2.4826 N   0  0  0  0  0  0  0  0  0  0  0  0
   -5.5556    1.0018    1.5434 N   0  0  0  0  0  0  0  0  0  0  0  0
   -4.0677   -0.5569   -0.8964 N   0  0  0  0  0  0  0  0  0  0  0  0
   -2.6817   -0.8413   -0.7209 C   0  0  0  0  0  0  0  0  0  0  0  0
   -2.3010   -1.9930   -0.1499 N   0  0  0  0  0  0  0  0  0  0  0  0
   -1.0243   -2.3414    0.0539 C   0  0  0  0  0  0  0  0  0  0  0  0
   -0.0334   -1.4632   -0.3473 C   0  0  0  0  0  0  0  0  0  0  0  0
    1.3051   -1.7904   -0.1522 C   0  0  0  0  0  0  0  0  0  0  0  0
    2.2662   -0.8897   -0.5651 C   0  0  0  0  0  0  0  0  0  0  0  0
    3.6199   -1.1549   -0.3998 O   0  0  0  0  0  0  0  0  0  0  0  0
    4.4719   -0.3595    0.3446 C   0  0  0  0  0  0  0  0  0  0  0  0
    5.5614    0.2261   -0.2715 C   0  0  0  0  0  0  0  0  0  0  0  0
    6.4442    1.0290    0.4222 C   0  0  0  0  0  0  0  0  0  0  0  0
    6.2775    1.2839    1.7678 C   0  0  0  0  0  0  0  0  0  0  0  0
    7.1427    2.0750    2.4634 F   0  0  0  0  0  0  0  0  0  0  0  0
    5.1887    0.6974    2.3791 C   0  0  0  0  0  0  0  0  0  0  0  0
    4.3021   -0.1067    1.6907 C   0  0  0  0  0  0  0  0  0  0  0  0
    3.2299   -0.6831    2.2966 F   0  0  0  0  0  0  0  0  0  0  0  0
    1.8734    0.2938   -1.1519 C   0  0  0  0  0  0  0  0  0  0  0  0
    2.7630    1.1097   -1.5254 O   0  0  0  0  0  0  0  0  0  0  0  0
    0.5521    0.5722   -1.3228 N   0  0  0  0  0  0  0  0  0  0  0  0
    0.2576    1.8447   -1.9502 C   0  0  0  0  0  0  0  0  0  0  0  0
   -0.4033   -0.2758   -0.9354 C   0  0  0  0  0  0  0  0  0  0  0  0
   -1.6946    0.0103   -1.1092 N   0  0  0  0  0  0  0  0  0  0  0  0
   -5.5490    4.1777   -0.0850 N   0  0  0  0  0  0  0  0  0  0  0  0
   -4.8691    3.5379   -1.1588 C   0  0  0  0  0  0  0  0  0  0  0  0
   -5.4957    2.7460   -1.8808 O   0  0  0  0  0  0  0  0  0  0  0  0
   -3.4540    3.8140   -1.4029 C   0  0  0  0  0  0  0  0  0  0  0  0
   -2.8604    3.0993   -2.5815 C   0  0  0  0  0  0  0  0  0  0  0  0
   -2.9894    1.6141   -2.3541 C   0  0  0  0  0  0  0  0  0  0  0  0
   -2.2449    1.2840   -1.0898 C   0  0  0  0  0  0  0  0  0  0  0  0
   -1.6954    2.1869   -0.4088 O   0  0  0  0  0  0  0  0  0  0  0  0
   -2.2261   -0.0963   -0.7563 N   0  0  0  0  0  0  0  0  0  0  0  0
   -1.4453   -0.4293    0.5684 C   0  0  1  0  0  0  0  0  0  0  0  0
   -1.3191   -2.0300    0.1630 C   0  0  0  0  0  0  0  0  0  0  0  0
   -0.5911   -2.5684    1.3261 C   0  0  0  0  0  0  0  0  0  0  0  0
   -1.2795   -2.9881    2.4304 C   0  0  0  0  0  0  0  0  0  0  0  0
   -0.6116   -3.4959    3.5007 C   0  0  0  0  0  0  0  0  0  0  0  0
    0.7753   -3.6156    3.5348 C   0  0  0  0  0  0  0  0  0  0  0  0
    1.4635   -4.1257    4.6081 O   0  0  0  0  0  0  0  0  0  0  0  0
    1.4578   -3.1997    2.4401 C   0  0  0  0  0  0  0  0  0  0  0  0
    0.7948   -2.6836    1.3488 C   0  0  0  0  0  0  0  0  0  0  0  0
   -0.0239    0.0120    0.0867 C   0  0  0  0  0  0  0  0  0  0  0  0
    0.0646    0.3710   -1.0784 O   0  0  0  0  0  0  0  0  0  0  0  0
    1.0854    0.0041    0.9248 N   0  0  0  0  0  0  0  0  0  0  0  0
    2.3756    0.4268    0.4274 C   0  0  0  0  0  0  0  0  0  0  0  0
    2.8514   -0.4268   -0.7430 C   0  0  0  0  0  0  0  0  0  0  0  0
    4.1786    0.0688   -1.1909 C   0  0  0  0  0  0  0  0  0  0  0  0
    4.3159    1.0583   -2.1641 C   0  0  0  0  0  0  0  0  0  0  0  0
    5.6481    1.2159   -2.2788 N   0  0  0  0  0  0  0  0  0  0  0  0
    6.2851    0.3818   -1.4349 C   0  0  0  0  0  0  0  0  0  0  0  0
    5.3583   -0.3393   -0.7510 N   0  0  0  0  0  0  0  0  0  0  0  0
  2  1  1  1
  2  3  1  0
  3  4  1  0
  4  5  1  0
  5  6  2  0
  6  7  1  0
  7  8  2  0
  2  9  1  0
  9 10  1  0
 10 11  2  0
 11 12  1  0
 12 13  2  0
 13 14  1  0
 14 15  2  0
 15 16  1  0
 16 17  1  0
 17 18  2  0
 18 19  1  0
 19 20  2  0
 20 21  1  0
 20 22  1  0
 22 23  2  0
 23 24  1  0
 15 25  1  0
 25 26  2  0
 25 27  1  0
 27 28  1  0
 27 29  1  0
 29 30  2  0
 31 32  1  0
 32 33  2  0
 32 34  1  0
 34 35  1  0
 35 36  1  0
 36 37  1  0
 37 38  2  0
 37 39  1  0
 39 40  1  0
 40 41  1  6
 41 42  1  0
 42 43  2  0
 43 44  1  0
 44 45  2  0
 45 46  1  0
 45 47  1  0
 47 48  2  0
 40 49  1  0
 49 50  2  0
 49 51  1  0
 51 52  1  0
 52 53  1  0
 53 54  1  0
 54 55  2  0
 55 56  1  0
 56 57  1  0
 57 58  2  0
  8  4  1  0
 30 10  1  0
 48 42  1  0
 58 54  1  0
 29 13  1  0
 23 17  1  0
M  END

