
     RDKit          3D

 48 50  0  0  0  0  0  0  0  0999 V2000
   -3.3741    2.4675   -0.3005 C   0  0  0  0  0  0  0  0  0  0  0  0
   -3.6535    1.2035   -1.1021 C   0  0  0  0  0  0  0  0  0  0  0  0
   -2.9544    0.0762   -0.5273 N   0  0  0  0  0  0  0  0  0  0  0  0
   -1.5702    0.0661   -0.4061 C   0  0  0  0  0  0  0  0  0  0  0  0
   -0.9375    1.0232   -0.7946 O   0  0  0  0  0  0  0  0  0  0  0  0
   -0.7314   -1.0977    0.2027 C   0  0  2  0  0  0  0  0  0  0  0  0
   -1.4773   -1.0972    1.7062 C   0  0  0  0  0  0  0  0  0  0  0  0
   -2.9227   -1.3847    1.3986 C   0  0  0  0  0  0  0  0  0  0  0  0
   -3.2054   -2.9515    0.6155 S   0  0  0  0  0  0  0  0  0  0  0  0
   -2.5212   -3.1381   -1.0259 C   0  0  0  0  0  0  0  0  0  0  0  0
    0.4756   -0.2805    0.7247 N   0  0  0  0  0  0  0  0  0  0  0  0
    1.4519    0.2174   -0.1085 C   0  0  0  0  0  0  0  0  0  0  0  0
    1.3806    0.0020   -1.3365 O   0  0  0  0  0  0  0  0  0  0  0  0
    2.5682    0.9971    0.4697 C   0  0  0  0  0  0  0  0  0  0  0  0
    3.4868    1.5269   -0.7599 C   0  0  1  0  0  0  0  0  0  0  0  0
    4.5593    2.3033    0.1937 C   0  0  0  0  0  0  0  0  0  0  0  0
    4.3618    0.1614   -0.8786 C   0  0  0  0  0  0  0  0  0  0  0  0
    5.0637   -0.0951    0.3977 C   0  0  0  0  0  0  0  0  0  0  0  0
    3.0816   -2.2136    0.3975 C   0  0  0  0  0  0  0  0  0  0  0  0
    4.1606   -1.1319   -0.2074 C   0  0  2  0  0  0  0  0  0  0  0  0
    5.3950   -1.7279    0.6746 C   0  0  0  0  0  0  0  0  0  0  0  0
    6.5423   -0.9339    0.3371 N   0  0  0  0  0  0  0  0  0  0  0  0
    7.3854   -1.1841   -0.6238 N   0  0  0  0  0  0  0  0  0  0  0  0
    8.3110   -0.2138   -0.6139 C   0  0  0  0  0  0  0  0  0  0  0  0
    8.0180    0.6445    0.3796 N   0  0  0  0  0  0  0  0  0  0  0  0
    6.9208    0.1612    0.9383 N   0  0  0  0  0  0  0  0  0  0  0  0
    3.7970   -0.0415    0.8442 N   0  0  0  0  0  0  0  0  0  0  0  0
    2.4421    0.3840    0.8329 C   0  0  0  0  0  0  0  0  0  0  0  0
    2.0931    1.3108    1.7129 N   0  0  0  0  0  0  0  0  0  0  0  0
    0.8327    1.7569    1.7568 C   0  0  0  0  0  0  0  0  0  0  0  0
   -0.1062    1.2466    0.8790 C   0  0  0  0  0  0  0  0  0  0  0  0
   -1.3966    1.6719    0.8900 C   0  0  0  0  0  0  0  0  0  0  0  0
   -2.3104    1.1446    0.0026 C   0  0  0  0  0  0  0  0  0  0  0  0
   -3.6194    1.5402   -0.0250 O   0  0  0  0  0  0  0  0  0  0  0  0
   -4.6219    0.6319    0.1947 C   0  0  0  0  0  0  0  0  0  0  0  0
   -4.3901   -0.7076    0.4519 C   0  0  0  0  0  0  0  0  0  0  0  0
   -5.4144   -1.6036    0.6700 C   0  0  0  0  0  0  0  0  0  0  0  0
   -6.7125   -1.0997    0.6205 C   0  0  0  0  0  0  0  0  0  0  0  0
   -7.7558   -1.9452    0.8293 F   0  0  0  0  0  0  0  0  0  0  0  0
   -6.9704    0.2313    0.3660 C   0  0  0  0  0  0  0  0  0  0  0  0
   -5.9294    1.1101    0.1507 C   0  0  0  0  0  0  0  0  0  0  0  0
   -6.1974    2.4019   -0.0956 F   0  0  0  0  0  0  0  0  0  0  0  0
   -1.9086    0.1776   -0.9024 C   0  0  0  0  0  0  0  0  0  0  0  0
   -2.7037   -0.3365   -1.7343 O   0  0  0  0  0  0  0  0  0  0  0  0
   -0.6212   -0.2112   -0.8750 N   0  0  0  0  0  0  0  0  0  0  0  0
   -0.1434   -1.2325   -1.8124 C   0  0  0  0  0  0  0  0  0  0  0  0
    0.2799    0.2867   -0.0238 C   0  0  0  0  0  0  0  0  0  0  0  0
    1.5419   -0.1171   -0.0214 N   0  0  0  0  0  0  0  0  0  0  0  0
  1  2  1  0
  2  3  1  0
  3  4  1  0
  4  5  2  0
  4  6  1  0
  6  7  1  1
  7  8  1  0
  8  9  1  0
  9 10  1  0
  6 11  1  0
 11 12  1  0
 12 13  2  0
 12 14  1  0
 14 15  1  0
 15 16  1  1
 15 17  1  0
 17 18  1  0
 20 19  1  1
 20 21  1  0
 21 22  1  0
 22 23  1  0
 23 24  2  0
 24 25  1  0
 25 26  2  0
 20 27  1  0
 27 28  1  0
 28 29  2  0
 29 30  1  0
 30 31  2  0
 31 32  1  0
 32 33  2  0
 33 34  1  0
 34 35  1  0
 35 36  2  0
 36 37  1  0
 37 38  2  0
 38 39  1  0
 38 40  1  0
 40 41  2  0
 41 42  1  0
 33 43  1  0
 43 44  2  0
 43 45  1  0
 45 46  1  0
 45 47  1  0
 47 48  2  0
 26 22  1  0
 48 28  1  0
 47 31  1  0
 41 35  1  0
M  END

