
     RDKit          3D

 50 53  0  0  0  0  0  0  0  0999 V2000
   -5.7796   -1.2016   -1.0205 C   0  0  0  0  0  0  0  0  0  0  0  0
   -4.8898    0.0179   -1.0258 C   0  0  0  0  0  0  0  0  0  0  0  0
   -5.6641    1.1976   -0.4954 C   0  0  0  0  0  0  0  0  0  0  0  0
   -3.6921   -0.2978   -0.1295 C   0  0  0  0  0  0  0  0  0  0  0  0
   -2.9405   -1.4981   -0.6615 C   0  0  0  0  0  0  0  0  0  0  0  0
   -1.8253   -1.7552    0.2132 N   0  0  0  0  0  0  0  0  0  0  0  0
   -0.8571   -0.7810    0.3971 C   0  0  0  0  0  0  0  0  0  0  0  0
   -0.9383    0.2903   -0.1724 O   0  0  0  0  0  0  0  0  0  0  0  0
    0.3895   -0.9699    1.3276 C   0  0  2  0  0  0  0  0  0  0  0  0
   -0.3242   -0.5272    2.7538 C   0  0  0  0  0  0  0  0  0  0  0  0
   -0.8797    0.8190    2.3886 C   0  0  0  0  0  0  0  0  0  0  0  0
    0.2452    1.4205    1.5907 C   0  0  0  0  0  0  0  0  0  0  0  0
    1.0834    0.3903    1.1412 N   0  0  0  0  0  0  0  0  0  0  0  0
    2.3637    0.4322    0.5902 C   0  0  0  0  0  0  0  0  0  0  0  0
    2.9644    1.5552    0.4243 O   0  0  0  0  0  0  0  0  0  0  0  0
    3.1243   -0.7888    0.1586 C   0  0  0  0  0  0  0  0  0  0  0  0
    4.4578   -0.4204   -0.4235 C   0  0  0  0  0  0  0  0  0  0  0  0
    4.3392    0.4473   -1.6121 C   0  0  0  0  0  0  0  0  0  0  0  0
    5.5783    0.8669   -2.2164 N   0  0  0  0  0  0  0  0  0  0  0  0
    3.2449    0.8027   -2.0755 O   0  0  0  0  0  0  0  0  0  0  0  0
    6.2711   -1.8318   -1.6140 C   0  0  0  0  0  0  0  0  0  0  0  0
    4.8152   -1.2847   -2.1904 C   0  0  2  0  0  0  0  0  0  0  0  0
    5.1022    0.2848   -1.7692 C   0  0  0  0  0  0  0  0  0  0  0  0
    5.3027    0.3405   -0.3677 N   0  0  0  0  0  0  0  0  0  0  0  0
    4.3395    0.5259    0.5173 N   0  0  0  0  0  0  0  0  0  0  0  0
    4.8766    0.5247    1.7427 C   0  0  0  0  0  0  0  0  0  0  0  0
    6.1831    0.3370    1.6159 N   0  0  0  0  0  0  0  0  0  0  0  0
    6.4210    0.2277    0.3299 N   0  0  0  0  0  0  0  0  0  0  0  0
    4.0289   -1.6477   -0.8758 N   0  0  0  0  0  0  0  0  0  0  0  0
    2.6466   -1.2924   -1.0180 C   0  0  0  0  0  0  0  0  0  0  0  0
    2.1205   -0.7341   -2.1168 N   0  0  0  0  0  0  0  0  0  0  0  0
    0.8563   -0.3886   -2.2974 C   0  0  0  0  0  0  0  0  0  0  0  0
   -0.0463   -0.6127   -1.2642 C   0  0  0  0  0  0  0  0  0  0  0  0
   -1.3329   -0.2786   -1.4033 C   0  0  0  0  0  0  0  0  0  0  0  0
   -2.2573   -0.5085   -0.3436 C   0  0  0  0  0  0  0  0  0  0  0  0
   -3.5121   -0.1311   -0.6131 O   0  0  0  0  0  0  0  0  0  0  0  0
   -4.3714    0.7866   -0.1445 C   0  0  0  0  0  0  0  0  0  0  0  0
   -4.7116    1.8505   -1.0446 C   0  0  0  0  0  0  0  0  0  0  0  0
   -5.5609    2.8330   -0.7067 C   0  0  0  0  0  0  0  0  0  0  0  0
   -6.1788    2.9064    0.5303 C   0  0  0  0  0  0  0  0  0  0  0  0
   -7.0320    3.8930    0.8730 F   0  0  0  0  0  0  0  0  0  0  0  0
   -5.8739    1.9044    1.4093 C   0  0  0  0  0  0  0  0  0  0  0  0
   -4.9890    0.8772    1.0602 C   0  0  0  0  0  0  0  0  0  0  0  0
   -4.8198   -0.0757    2.0167 F   0  0  0  0  0  0  0  0  0  0  0  0
   -1.7222   -1.0779    0.7736 C   0  0  0  0  0  0  0  0  0  0  0  0
   -2.4557   -1.3217    1.7521 O   0  0  0  0  0  0  0  0  0  0  0  0
   -0.4085   -1.3968    0.8629 N   0  0  0  0  0  0  0  0  0  0  0  0
    0.0453   -1.9963    2.1003 C   0  0  0  0  0  0  0  0  0  0  0  0
    0.4831   -1.1932   -0.1125 C   0  0  0  0  0  0  0  0  0  0  0  0
    1.7800   -1.5199    0.0044 N   0  0  0  0  0  0  0  0  0  0  0  0
  1  2  1  0
  2  3  1  0
  2  4  1  0
  4  5  1  0
  5  6  1  0
  6  7  1  0
  7  8  2  0
  9  7  1  6
  9 10  1  0
 10 11  1  0
 11 12  1  0
 12 13  1  0
 13 14  1  0
 14 15  2  0
 14 16  1  0
 16 17  1  0
 17 18  1  0
 18 19  1  0
 18 20  2  0
 22 21  1  1
 22 23  1  0
 23 24  1  0
 24 25  1  0
 25 26  2  0
 26 27  1  0
 27 28  2  0
 22 29  1  0
 29 30  1  0
 30 31  2  0
 31 32  1  0
 32 33  2  0
 33 34  1  0
 34 35  2  0
 35 36  1  0
 36 37  1  0
 37 38  2  0
 38 39  1  0
 39 40  2  0
 40 41  1  0
 40 42  1  0
 42 43  2  0
 43 44  1  0
 35 45  1  0
 45 46  2  0
 45 47  1  0
 47 48  1  0
 47 49  1  0
 49 50  2  0
 13  9  1  0
 28 24  1  0
 50 30  1  0
 49 33  1  0
 43 37  1  0
M  END

