
     RDKit          3D

 52 55  0  0  0  0  0  0  0  0999 V2000
   -4.0882    0.1351    0.1292 C   0  0  0  0  0  0  0  0  0  0  0  0
   -4.6851   -0.2823   -1.1515 C   0  0  0  0  0  0  0  0  0  0  0  0
   -6.0078   -0.9665   -1.0749 C   0  0  0  0  0  0  0  0  0  0  0  0
   -3.7892   -0.7092   -2.2423 C   0  0  0  0  0  0  0  0  0  0  0  0
   -2.9015   -1.8620   -2.0159 C   0  0  0  0  0  0  0  0  0  0  0  0
   -1.9345   -1.7283   -0.9525 N   0  0  0  0  0  0  0  0  0  0  0  0
   -0.9805   -0.6647   -1.0667 C   0  0  0  0  0  0  0  0  0  0  0  0
   -0.9756    0.1007   -2.0000 O   0  0  0  0  0  0  0  0  0  0  0  0
    0.0855   -0.5620    0.1331 C   0  0  2  0  0  0  0  0  0  0  0  0
   -0.8900    0.3433    1.1270 C   0  0  0  0  0  0  0  0  0  0  0  0
   -0.0351    0.5441    2.3342 C   0  0  0  0  0  0  0  0  0  0  0  0
    0.0063   -0.2948    3.4214 C   0  0  0  0  0  0  0  0  0  0  0  0
    0.8791    0.1906    4.3201 N   0  0  0  0  0  0  0  0  0  0  0  0
    1.3907    1.3285    3.8124 C   0  0  0  0  0  0  0  0  0  0  0  0
    0.8269    1.5400    2.5959 N   0  0  0  0  0  0  0  0  0  0  0  0
    0.8624    0.6888   -0.4366 N   0  0  0  0  0  0  0  0  0  0  0  0
    2.2681    0.4978   -0.5457 C   0  0  0  0  0  0  0  0  0  0  0  0
    2.7026   -0.6293   -0.1795 O   0  0  0  0  0  0  0  0  0  0  0  0
    3.1718    1.5848   -1.0688 C   0  0  0  0  0  0  0  0  0  0  0  0
    4.6639    0.8480   -0.9733 C   0  0  1  0  0  0  0  0  0  0  0  0
    4.2043   -0.3928   -2.0124 C   0  0  0  0  0  0  0  0  0  0  0  0
    5.2257    1.6848   -2.1532 O   0  0  0  0  0  0  0  0  0  0  0  0
    4.2299   -1.0238    1.3634 C   0  0  0  0  0  0  0  0  0  0  0  0
    4.9832   -0.3765    0.0303 C   0  0  2  0  0  0  0  0  0  0  0  0
    5.9822    0.6622    0.8490 C   0  0  0  0  0  0  0  0  0  0  0  0
    6.8012   -0.0804    1.7015 N   0  0  0  0  0  0  0  0  0  0  0  0
    7.9837   -0.5965    1.4405 N   0  0  0  0  0  0  0  0  0  0  0  0
    8.4200   -1.2306    2.5347 C   0  0  0  0  0  0  0  0  0  0  0  0
    7.4905   -1.1057    3.4930 N   0  0  0  0  0  0  0  0  0  0  0  0
    6.5186   -0.4010    2.9550 N   0  0  0  0  0  0  0  0  0  0  0  0
    3.8665    0.7381   -0.1473 N   0  0  0  0  0  0  0  0  0  0  0  0
    2.5657    0.1910   -0.3598 C   0  0  0  0  0  0  0  0  0  0  0  0
    2.3001   -1.1125   -0.4067 N   0  0  0  0  0  0  0  0  0  0  0  0
    1.0313   -1.5048   -0.6135 C   0  0  0  0  0  0  0  0  0  0  0  0
   -0.0191   -0.6222   -0.7811 C   0  0  0  0  0  0  0  0  0  0  0  0
   -1.2998   -1.0100   -0.9892 C   0  0  0  0  0  0  0  0  0  0  0  0
   -2.3575   -0.0297   -1.1574 C   0  0  0  0  0  0  0  0  0  0  0  0
   -3.5757   -0.5085   -1.3574 O   0  0  0  0  0  0  0  0  0  0  0  0
   -4.8235   -0.6271   -0.9214 C   0  0  0  0  0  0  0  0  0  0  0  0
   -5.2531   -1.9512   -0.5812 C   0  0  0  0  0  0  0  0  0  0  0  0
   -6.4863   -2.2143   -0.1299 C   0  0  0  0  0  0  0  0  0  0  0  0
   -7.4016   -1.2035    0.0259 C   0  0  0  0  0  0  0  0  0  0  0  0
   -8.6669   -1.4388    0.4859 F   0  0  0  0  0  0  0  0  0  0  0  0
   -7.0202    0.0663   -0.2911 C   0  0  0  0  0  0  0  0  0  0  0  0
   -5.7333    0.3689   -0.7668 C   0  0  0  0  0  0  0  0  0  0  0  0
   -5.4671    1.6654   -1.0844 F   0  0  0  0  0  0  0  0  0  0  0  0
   -2.0082    1.2820   -1.0981 C   0  0  0  0  0  0  0  0  0  0  0  0
   -2.8366    2.2183   -1.2331 O   0  0  0  0  0  0  0  0  0  0  0  0
   -0.6985    1.6172   -0.8849 N   0  0  0  0  0  0  0  0  0  0  0  0
   -0.3779    3.0332   -0.8291 C   0  0  0  0  0  0  0  0  0  0  0  0
    0.2863    0.7264   -0.7276 C   0  0  0  0  0  0  0  0  0  0  0  0
    1.5661    1.0716   -0.5191 N   0  0  0  0  0  0  0  0  0  0  0  0
  1  2  1  0
  2  3  1  0
  2  4  1  0
  4  5  1  0
  5  6  1  0
  6  7  1  0
  7  8  2  0
  7  9  1  0
  9 10  1  1
 10 11  1  0
 11 12  2  0
 12 13  1  0
 13 14  1  0
 14 15  2  0
  9 16  1  0
 16 17  1  0
 17 18  2  0
 17 19  1  0
 19 20  1  0
 20 21  1  6
 20 22  1  0
 24 23  1  1
 24 25  1  0
 25 26  1  0
 26 27  1  0
 27 28  2  0
 28 29  1  0
 29 30  2  0
 24 31  1  0
 31 32  1  0
 32 33  2  0
 33 34  1  0
 34 35  2  0
 35 36  1  0
 36 37  2  0
 37 38  1  0
 38 39  1  0
 39 40  2  0
 40 41  1  0
 41 42  2  0
 42 43  1  0
 42 44  1  0
 44 45  2  0
 45 46  1  0
 37 47  1  0
 47 48  2  0
 47 49  1  0
 49 50  1  0
 49 51  1  0
 51 52  2  0
 15 11  1  0
 30 26  1  0
 52 32  1  0
 51 35  1  0
 45 39  1  0
M  END

