
     RDKit          3D

 56 59  0  0  0  0  0  0  0  0999 V2000
   -0.9681    0.8000    3.4074 C   0  0  0  0  0  0  0  0  0  0  0  0
   -1.6492    1.0636    2.0613 C   0  0  0  0  0  0  0  0  0  0  0  0
   -0.5997    0.6715    0.9158 C   0  0  2  0  0  0  0  0  0  0  0  0
   -1.5157    1.0186   -0.3414 C   0  0  0  0  0  0  0  0  0  0  0  0
   -0.8027   -0.9792    1.0630 C   0  0  2  0  0  0  0  0  0  0  0  0
    0.1693   -1.3933   -0.0139 N   0  0  0  0  0  0  0  0  0  0  0  0
    1.1474   -0.5615   -0.5687 C   0  0  0  0  0  0  0  0  0  0  0  0
    1.2915    0.6089   -0.2170 O   0  0  0  0  0  0  0  0  0  0  0  0
    2.0197   -1.1463   -1.6122 C   0  0  0  0  0  0  0  0  0  0  0  0
    3.1142   -0.2609   -2.0456 C   0  0  0  0  0  0  0  0  0  0  0  0
    4.0398    0.0809   -0.9269 C   0  0  0  0  0  0  0  0  0  0  0  0
    3.9398    1.2131   -0.1800 C   0  0  0  0  0  0  0  0  0  0  0  0
    4.7990    1.5420    0.8695 C   0  0  0  0  0  0  0  0  0  0  0  0
    5.7912    0.6197    1.1157 C   0  0  0  0  0  0  0  0  0  0  0  0
    6.7278    0.8277    2.1478 O   0  0  0  0  0  0  0  0  0  0  0  0
    5.9282   -0.5373    0.3839 C   0  0  0  0  0  0  0  0  0  0  0  0
    5.0672   -0.8146   -0.6300 C   0  0  0  0  0  0  0  0  0  0  0  0
   -2.1134   -1.2387    0.2296 C   0  0  0  0  0  0  0  0  0  0  0  0
   -2.1481   -1.2847   -0.9814 O   0  0  0  0  0  0  0  0  0  0  0  0
   -3.2260   -1.4155    1.0365 N   0  0  0  0  0  0  0  0  0  0  0  0
   -4.5281   -1.6690    0.5540 C   0  0  0  0  0  0  0  0  0  0  0  0
   -5.1634   -0.6319   -0.2527 C   0  0  0  0  0  0  0  0  0  0  0  0
   -4.5367   -0.1527   -1.5017 C   0  0  0  0  0  0  0  0  0  0  0  0
   -5.3520    0.8816   -2.1557 C   0  0  0  0  0  0  0  0  0  0  0  0
   -4.8724    1.7676   -3.1672 N   0  0  0  0  0  0  0  0  0  0  0  0
   -6.5596    0.9905   -1.7965 O   0  0  0  0  0  0  0  0  0  0  0  0
   -4.1385    1.2340   -2.4777 C   0  0  0  0  0  0  0  0  0  0  0  0
   -4.8058    0.2250   -1.3399 C   0  0  2  0  0  0  0  0  0  0  0  0
   -5.9745    1.3328   -0.9254 C   0  0  0  0  0  0  0  0  0  0  0  0
   -6.7186    0.6427    0.1045 N   0  0  0  0  0  0  0  0  0  0  0  0
   -6.5548    0.6134    1.4041 N   0  0  0  0  0  0  0  0  0  0  0  0
   -7.4865   -0.1659    1.9793 C   0  0  0  0  0  0  0  0  0  0  0  0
   -8.2485   -0.6293    0.9854 N   0  0  0  0  0  0  0  0  0  0  0  0
   -7.7781   -0.1355   -0.1509 N   0  0  0  0  0  0  0  0  0  0  0  0
   -3.8180    0.7224   -0.2024 N   0  0  0  0  0  0  0  0  0  0  0  0
   -2.4493    0.4966   -0.5102 C   0  0  0  0  0  0  0  0  0  0  0  0
   -2.0486   -0.0816   -1.6545 N   0  0  0  0  0  0  0  0  0  0  0  0
   -0.7394   -0.2695   -1.8912 C   0  0  0  0  0  0  0  0  0  0  0  0
    0.2194    0.1295   -0.9597 C   0  0  0  0  0  0  0  0  0  0  0  0
    1.5281   -0.0509   -1.1798 C   0  0  0  0  0  0  0  0  0  0  0  0
    2.4832    0.3667   -0.2100 C   0  0  0  0  0  0  0  0  0  0  0  0
    3.7408    0.1258   -0.5653 O   0  0  0  0  0  0  0  0  0  0  0  0
    4.8104   -0.5845   -0.2077 C   0  0  0  0  0  0  0  0  0  0  0  0
    5.2057   -1.5848   -1.1581 C   0  0  0  0  0  0  0  0  0  0  0  0
    6.2791   -2.3884   -0.9366 C   0  0  0  0  0  0  0  0  0  0  0  0
    7.0366   -2.2895    0.1955 C   0  0  0  0  0  0  0  0  0  0  0  0
    8.1017   -3.0645    0.4494 F   0  0  0  0  0  0  0  0  0  0  0  0
    6.6698   -1.3371    1.1115 C   0  0  0  0  0  0  0  0  0  0  0  0
    5.5684   -0.4867    0.9208 C   0  0  0  0  0  0  0  0  0  0  0  0
    5.3330    0.4284    1.8841 F   0  0  0  0  0  0  0  0  0  0  0  0
    2.0022    0.9470    0.9270 C   0  0  0  0  0  0  0  0  0  0  0  0
    2.7422    1.3522    1.8378 O   0  0  0  0  0  0  0  0  0  0  0  0
    0.6576    1.1167    1.1222 N   0  0  0  0  0  0  0  0  0  0  0  0
    0.1620    1.7365    2.3407 C   0  0  0  0  0  0  0  0  0  0  0  0
   -0.2299    0.7165    0.1973 C   0  0  0  0  0  0  0  0  0  0  0  0
   -1.5498    0.8821    0.3867 N   0  0  0  0  0  0  0  0  0  0  0  0
  1  2  1  0
  2  3  1  0
  3  4  1  6
  3  5  1  0
  5  6  1  6
  6  7  1  0
  7  8  2  0
  7  9  1  0
  9 10  1  0
 10 11  1  0
 11 12  2  0
 12 13  1  0
 13 14  2  0
 14 15  1  0
 14 16  1  0
 16 17  2  0
  5 18  1  0
 18 19  2  0
 18 20  1  0
 20 21  1  0
 21 22  1  0
 22 23  1  0
 23 24  1  0
 24 25  1  0
 24 26  2  0
 28 27  1  6
 28 29  1  0
 29 30  1  0
 30 31  1  0
 31 32  2  0
 32 33  1  0
 33 34  2  0
 28 35  1  0
 35 36  1  0
 36 37  2  0
 37 38  1  0
 38 39  2  0
 39 40  1  0
 40 41  2  0
 41 42  1  0
 42 43  1  0
 43 44  2  0
 44 45  1  0
 45 46  2  0
 46 47  1  0
 46 48  1  0
 48 49  2  0
 49 50  1  0
 41 51  1  0
 51 52  2  0
 51 53  1  0
 53 54  1  0
 53 55  1  0
 55 56  2  0
 17 11  1  0
 34 30  1  0
 56 36  1  0
 55 39  1  0
 49 43  1  0
M  END

