
     RDKit          3D

 56 59  0  0  0  0  0  0  0  0999 V2000
    6.8326   -2.5411    0.5393 C   0  0  0  0  0  0  0  0  0  0  0  0
    5.8756   -1.4500    0.2017 C   0  0  0  0  0  0  0  0  0  0  0  0
    6.2982   -0.1012    0.6774 C   0  0  0  0  0  0  0  0  0  0  0  0
    5.4056   -1.4742   -1.2226 C   0  0  0  0  0  0  0  0  0  0  0  0
    4.4529   -0.3037   -1.3794 C   0  0  0  0  0  0  0  0  0  0  0  0
    3.3138   -0.4401   -0.4463 C   0  0  0  0  0  0  0  0  0  0  0  0
    3.1662   -1.3913    0.3441 O   0  0  0  0  0  0  0  0  0  0  0  0
    2.3377    0.5756   -0.4585 N   0  0  0  0  0  0  0  0  0  0  0  0
    1.1548    0.3529    0.5741 C   0  0  1  0  0  0  0  0  0  0  0  0
    0.4265    1.7276    0.0889 C   0  0  0  0  0  0  0  0  0  0  0  0
   -0.8091    1.9237    0.8707 C   0  0  0  0  0  0  0  0  0  0  0  0
   -1.4478    3.1926    0.3857 C   0  0  0  0  0  0  0  0  0  0  0  0
   -0.4890    4.3246    0.5967 C   0  0  0  0  0  0  0  0  0  0  0  0
   -1.0341    5.5945    0.1484 N   0  0  0  0  0  4  0  0  0  0  0  0
    0.3522   -0.6152   -0.3756 C   0  0  0  0  0  0  0  0  0  0  0  0
    0.4139   -0.5233   -1.5970 O   0  0  0  0  0  0  0  0  0  0  0  0
   -0.4610   -1.6235    0.1872 N   0  0  0  0  0  0  0  0  0  0  0  0
   -1.2383   -2.5765   -0.5207 C   0  0  0  0  0  0  0  0  0  0  0  0
   -2.3257   -2.0582   -1.4069 C   0  0  0  0  0  0  0  0  0  0  0  0
   -3.3637   -1.2993   -0.6227 C   0  0  0  0  0  0  0  0  0  0  0  0
   -4.4598   -1.9208   -0.0573 C   0  0  0  0  0  0  0  0  0  0  0  0
   -5.4181   -1.2312    0.6740 C   0  0  0  0  0  0  0  0  0  0  0  0
   -5.2867    0.1396    0.8545 C   0  0  0  0  0  0  0  0  0  0  0  0
   -6.2131    0.8734    1.5739 O   0  0  0  0  0  0  0  0  0  0  0  0
   -4.2042    0.7858    0.3020 C   0  0  0  0  0  0  0  0  0  0  0  0
   -3.2795    0.0594   -0.4153 C   0  0  0  0  0  0  0  0  0  0  0  0
    4.9767   -1.4669    1.0659 C   0  0  0  0  0  0  0  0  0  0  0  0
    5.1335   -1.7864   -0.5241 C   0  0  2  0  0  0  0  0  0  0  0  0
    4.7644   -0.2731   -0.9814 C   0  0  0  0  0  0  0  0  0  0  0  0
    5.8002    0.5122   -0.3354 N   0  0  0  0  0  0  0  0  0  0  0  0
    5.6456    1.0034    0.8792 N   0  0  0  0  0  0  0  0  0  0  0  0
    6.7734    1.6793    1.1966 C   0  0  0  0  0  0  0  0  0  0  0  0
    7.6112    1.5872    0.1517 N   0  0  0  0  0  0  0  0  0  0  0  0
    6.9784    0.8684   -0.7581 N   0  0  0  0  0  0  0  0  0  0  0  0
    3.6994   -2.3458   -0.6756 N   0  0  0  0  0  0  0  0  0  0  0  0
    2.6023   -1.5409   -0.3307 C   0  0  0  0  0  0  0  0  0  0  0  0
    2.6640   -0.2846    0.1364 N   0  0  0  0  0  0  0  0  0  0  0  0
    1.5347    0.4003    0.4377 C   0  0  0  0  0  0  0  0  0  0  0  0
    0.2890   -0.1822    0.2700 C   0  0  0  0  0  0  0  0  0  0  0  0
   -0.8834    0.4340    0.5468 C   0  0  0  0  0  0  0  0  0  0  0  0
   -2.1707   -0.1949    0.3630 C   0  0  0  0  0  0  0  0  0  0  0  0
   -3.2403    0.5081    0.6691 O   0  0  0  0  0  0  0  0  0  0  0  0
   -4.3686    1.1060    0.3634 C   0  0  0  0  0  0  0  0  0  0  0  0
   -4.4223    2.5372    0.5207 C   0  0  0  0  0  0  0  0  0  0  0  0
   -5.5302    3.2368    0.2343 C   0  0  0  0  0  0  0  0  0  0  0  0
   -6.6757    2.6292   -0.2247 C   0  0  0  0  0  0  0  0  0  0  0  0
   -7.7991    3.3584   -0.5157 F   0  0  0  0  0  0  0  0  0  0  0  0
   -6.6312    1.2732   -0.3750 C   0  0  0  0  0  0  0  0  0  0  0  0
   -5.5066    0.5022   -0.0912 C   0  0  0  0  0  0  0  0  0  0  0  0
   -5.6196   -0.8640   -0.2682 F   0  0  0  0  0  0  0  0  0  0  0  0
   -2.1194   -1.4680   -0.1138 C   0  0  0  0  0  0  0  0  0  0  0  0
   -3.1857   -2.1038   -0.3057 O   0  0  0  0  0  0  0  0  0  0  0  0
   -0.9346   -2.1050   -0.3993 N   0  0  0  0  0  0  0  0  0  0  0  0
   -1.0062   -3.4661   -0.9048 C   0  0  0  0  0  0  0  0  0  0  0  0
    0.2321   -1.4733   -0.2103 C   0  0  0  0  0  0  0  0  0  0  0  0
    1.3886   -2.0811   -0.4839 N   0  0  0  0  0  0  0  0  0  0  0  0
  1  2  1  0
  2  3  1  0
  2  4  1  0
  4  5  1  0
  5  6  1  0
  6  7  2  0
  6  8  1  0
  8  9  1  0
  9 10  1  6
 10 11  1  0
 11 12  1  0
 12 13  1  0
 13 14  1  0
  9 15  1  0
 15 16  2  0
 15 17  1  0
 17 18  1  0
 18 19  1  0
 19 20  1  0
 20 21  2  0
 21 22  1  0
 22 23  2  0
 23 24  1  0
 23 25  1  0
 25 26  2  0
 28 27  1  1
 28 29  1  0
 29 30  1  0
 30 31  1  0
 31 32  2  0
 32 33  1  0
 33 34  2  0
 28 35  1  0
 35 36  1  0
 36 37  2  0
 37 38  1  0
 38 39  2  0
 39 40  1  0
 40 41  2  0
 41 42  1  0
 42 43  1  0
 43 44  2  0
 44 45  1  0
 45 46  2  0
 46 47  1  0
 46 48  1  0
 48 49  2  0
 49 50  1  0
 41 51  1  0
 51 52  2  0
 51 53  1  0
 53 54  1  0
 53 55  1  0
 55 56  2  0
 26 20  1  0
 34 30  1  0
 56 36  1  0
 55 39  1  0
 49 43  1  0
M  CHG  1  14   1
M  END

