
     RDKit          3D

 44 46  0  0  0  0  0  0  0  0999 V2000
   -5.9969    0.4867    0.7356 C   0  0  0  0  0  0  0  0  0  0  0  0
   -4.5352    0.5140    1.1685 C   0  0  0  0  0  0  0  0  0  0  0  0
   -3.7663    0.7189   -0.0649 N   0  0  0  0  0  0  0  0  0  0  0  0
   -2.3598    0.7967   -0.0436 C   0  0  0  0  0  0  0  0  0  0  0  0
   -1.7596    0.6890    1.0458 O   0  0  0  0  0  0  0  0  0  0  0  0
   -1.5860    1.0028   -1.2838 C   0  0  0  0  0  0  0  0  0  0  0  0
   -0.1656    1.0456   -0.9889 N   0  0  0  0  0  0  0  0  0  0  0  0
    0.5226   -0.0166   -0.3969 C   0  0  0  0  0  0  0  0  0  0  0  0
   -0.1225   -1.0581   -0.1069 O   0  0  0  0  0  0  0  0  0  0  0  0
    1.9737   -0.0119   -0.0795 C   0  0  0  0  0  0  0  0  0  0  0  0
    2.4342   -1.2819    0.5487 C   0  0  0  0  0  0  0  0  0  0  0  0
    3.9083   -1.1808    0.8312 C   0  0  0  0  0  0  0  0  0  0  0  0
    4.8470   -0.9038   -0.7063 S   0  0  0  0  0  0  0  0  0  0  0  0
    6.6061   -0.8008   -0.2327 C   0  0  0  0  0  0  0  0  0  0  0  0
   -3.5471   -1.1336   -2.8596 C   0  0  0  0  0  0  0  0  0  0  0  0
   -4.5763   -1.2018   -1.5403 C   0  0  2  0  0  0  0  0  0  0  0  0
   -5.5954   -0.0638   -2.1951 C   0  0  0  0  0  0  0  0  0  0  0  0
   -6.6393    0.0726   -1.1913 N   0  0  0  0  0  0  0  0  0  0  0  0
   -6.5898    0.9285   -0.2076 N   0  0  0  0  0  0  0  0  0  0  0  0
   -7.6898    0.8232    0.5525 C   0  0  0  0  0  0  0  0  0  0  0  0
   -8.4258   -0.1446   -0.0121 N   0  0  0  0  0  0  0  0  0  0  0  0
   -7.7680   -0.5832   -1.0664 N   0  0  0  0  0  0  0  0  0  0  0  0
   -3.7373   -0.1105   -0.7481 N   0  0  0  0  0  0  0  0  0  0  0  0
   -2.3897   -0.5192   -0.5265 C   0  0  0  0  0  0  0  0  0  0  0  0
   -1.8802   -1.6953   -0.9392 N   0  0  0  0  0  0  0  0  0  0  0  0
   -0.5980   -2.0509   -0.7121 C   0  0  0  0  0  0  0  0  0  0  0  0
    0.2455   -1.1975   -0.0342 C   0  0  0  0  0  0  0  0  0  0  0  0
    1.5742   -1.5113    0.2277 C   0  0  0  0  0  0  0  0  0  0  0  0
    2.3711   -0.6263    0.9065 C   0  0  0  0  0  0  0  0  0  0  0  0
    3.6923   -0.8930    1.1889 O   0  0  0  0  0  0  0  0  0  0  0  0
    4.7288   -0.1025    0.7380 C   0  0  0  0  0  0  0  0  0  0  0  0
    4.4591    1.0029   -0.0268 C   0  0  0  0  0  0  0  0  0  0  0  0
    5.4755    1.8334   -0.5062 C   0  0  0  0  0  0  0  0  0  0  0  0
    6.7693    1.4989   -0.1802 C   0  0  0  0  0  0  0  0  0  0  0  0
    7.7842    2.2902   -0.6334 F   0  0  0  0  0  0  0  0  0  0  0  0
    7.0515    0.3888    0.5886 C   0  0  0  0  0  0  0  0  0  0  0  0
    6.0254   -0.4222    1.0542 C   0  0  0  0  0  0  0  0  0  0  0  0
    6.2689   -1.5188    1.8109 F   0  0  0  0  0  0  0  0  0  0  0  0
    1.8346    0.5662    1.3187 C   0  0  0  0  0  0  0  0  0  0  0  0
    2.5296    1.4087    1.9450 O   0  0  0  0  0  0  0  0  0  0  0  0
    0.5297    0.8514    1.0503 N   0  0  0  0  0  0  0  0  0  0  0  0
   -0.0559    2.1136    1.4812 C   0  0  0  0  0  0  0  0  0  0  0  0
   -0.2747    0.0070    0.3890 C   0  0  0  0  0  0  0  0  0  0  0  0
   -1.5723    0.3016    0.1275 N   0  0  0  0  0  0  0  0  0  0  0  0
  1  2  1  0
  2  3  1  0
  3  4  1  0
  4  5  2  0
  4  6  1  0
  6  7  1  0
  7  8  1  0
  8  9  2  0
  8 10  1  0
 10 11  1  0
 11 12  1  0
 12 13  1  0
 13 14  1  0
 16 15  1  6
 16 17  1  0
 17 18  1  0
 18 19  1  0
 19 20  2  0
 20 21  1  0
 21 22  2  0
 16 23  1  0
 23 24  1  0
 24 25  2  0
 25 26  1  0
 26 27  2  0
 27 28  1  0
 28 29  2  0
 29 30  1  0
 30 31  1  0
 31 32  2  0
 32 33  1  0
 33 34  2  0
 34 35  1  0
 34 36  1  0
 36 37  2  0
 37 38  1  0
 29 39  1  0
 39 40  2  0
 39 41  1  0
 41 42  1  0
 41 43  1  0
 43 44  2  0
 22 18  1  0
 44 24  1  0
 43 27  1  0
 37 31  1  0
M  END

