
     RDKit          3D

 55 59  0  0  0  0  0  0  0  0999 V2000
   -5.1495   -2.6274    0.3556 C   0  0  0  0  0  0  0  0  0  0  0  0
   -3.9694   -2.1010    1.1754 C   0  0  0  0  0  0  0  0  0  0  0  0
   -2.8097   -1.8686    0.2920 C   0  0  0  0  0  0  0  0  0  0  0  0
   -2.8707   -2.0934   -0.9287 O   0  0  0  0  0  0  0  0  0  0  0  0
   -1.6176   -1.3804    0.8693 N   0  0  0  0  0  0  0  0  0  0  0  0
   -0.4194   -1.1496   -0.1007 C   0  0  1  0  0  0  0  0  0  0  0  0
   -0.2610    0.4633    0.2080 C   0  0  0  0  0  0  0  0  0  0  0  0
   -1.5029    1.1358   -0.1426 C   0  0  0  0  0  0  0  0  0  0  0  0
   -1.8216    1.6703   -1.3599 C   0  0  0  0  0  0  0  0  0  0  0  0
   -3.0401    2.2781   -1.5417 C   0  0  0  0  0  0  0  0  0  0  0  0
   -3.9770    2.3734   -0.5227 C   0  0  0  0  0  0  0  0  0  0  0  0
   -5.2107    2.9816   -0.6847 O   0  0  0  0  0  0  0  0  0  0  0  0
   -3.6801    1.8420    0.7155 C   0  0  0  0  0  0  0  0  0  0  0  0
   -2.4508    1.2451    0.8482 C   0  0  0  0  0  0  0  0  0  0  0  0
    0.7206   -1.5763    0.9112 C   0  0  0  0  0  0  0  0  0  0  0  0
    0.5242   -1.9395    2.0433 O   0  0  0  0  0  0  0  0  0  0  0  0
    2.0639   -1.5255    0.4472 N   0  0  0  0  0  0  0  0  0  0  0  0
    3.1460   -1.9063    1.3370 C   0  0  0  0  0  0  0  0  0  0  0  0
    4.4250   -1.7405    0.5444 C   0  0  0  0  0  0  0  0  0  0  0  0
    4.5644   -0.3251    0.1106 C   0  0  0  0  0  0  0  0  0  0  0  0
    4.0257    0.0465   -1.1105 C   0  0  0  0  0  0  0  0  0  0  0  0
    4.0933    1.3281   -1.6149 C   0  0  0  0  0  0  0  0  0  0  0  0
    4.7370    2.2766   -0.8450 C   0  0  0  0  0  0  0  0  0  0  0  0
    5.2871    1.9525    0.3747 C   0  0  0  0  0  0  0  0  0  0  0  0
    5.1932    0.6403    0.8436 C   0  0  0  0  0  0  0  0  0  0  0  0
    3.8672   -2.4280    1.7174 C   0  0  0  0  0  0  0  0  0  0  0  0
    4.7472   -1.2556    0.9318 C   0  0  2  0  0  0  0  0  0  0  0  0
    5.3734   -0.6769    2.3810 C   0  0  0  0  0  0  0  0  0  0  0  0
    6.2031    0.4014    1.8539 N   0  0  0  0  0  0  0  0  0  0  0  0
    7.4595    0.2165    1.5109 N   0  0  0  0  0  0  0  0  0  0  0  0
    7.9722    1.3711    1.0628 C   0  0  0  0  0  0  0  0  0  0  0  0
    6.9647    2.2582    1.1529 N   0  0  0  0  0  0  0  0  0  0  0  0
    5.8955    1.6528    1.6358 N   0  0  0  0  0  0  0  0  0  0  0  0
    3.6067   -0.1595    0.9231 N   0  0  0  0  0  0  0  0  0  0  0  0
    2.4116   -0.4415    0.2832 C   0  0  0  0  0  0  0  0  0  0  0  0
    2.1707   -1.6105   -0.3361 N   0  0  0  0  0  0  0  0  0  0  0  0
    0.9819   -1.8450   -0.9522 C   0  0  0  0  0  0  0  0  0  0  0  0
    0.0180   -0.8546   -0.9314 C   0  0  0  0  0  0  0  0  0  0  0  0
   -1.2232   -0.9995   -1.5306 C   0  0  0  0  0  0  0  0  0  0  0  0
   -2.1802   -0.0077   -1.5062 C   0  0  0  0  0  0  0  0  0  0  0  0
   -3.3993   -0.2329   -2.1313 O   0  0  0  0  0  0  0  0  0  0  0  0
   -4.6090   -0.2008   -1.4484 C   0  0  0  0  0  0  0  0  0  0  0  0
   -5.6228    0.6794   -1.7677 C   0  0  0  0  0  0  0  0  0  0  0  0
   -6.7997    0.6575   -1.0477 C   0  0  0  0  0  0  0  0  0  0  0  0
   -7.0234   -0.2164   -0.0020 C   0  0  0  0  0  0  0  0  0  0  0  0
   -8.2106   -0.1906    0.6743 F   0  0  0  0  0  0  0  0  0  0  0  0
   -6.0106   -1.0980    0.3195 C   0  0  0  0  0  0  0  0  0  0  0  0
   -4.8196   -1.0769   -0.4081 C   0  0  0  0  0  0  0  0  0  0  0  0
   -3.8477   -1.9639   -0.0568 F   0  0  0  0  0  0  0  0  0  0  0  0
   -1.8752    1.1690   -0.8559 C   0  0  0  0  0  0  0  0  0  0  0  0
   -2.7305    2.1047   -0.8123 O   0  0  0  0  0  0  0  0  0  0  0  0
   -0.6672    1.3157   -0.2701 N   0  0  0  0  0  0  0  0  0  0  0  0
   -0.3860    2.5723    0.4051 C   0  0  0  0  0  0  0  0  0  0  0  0
    0.2634    0.3449   -0.2967 C   0  0  0  0  0  0  0  0  0  0  0  0
    1.4699    0.5148    0.2986 N   0  0  0  0  0  0  0  0  0  0  0  0
  1  2  1  0
  2  3  1  0
  3  4  2  0
  3  5  1  0
  5  6  1  0
  6  7  1  1
  7  8  1  0
  8  9  2  0
  9 10  1  0
 10 11  2  0
 11 12  1  0
 11 13  1  0
 13 14  2  0
  6 15  1  0
 15 16  2  0
 15 17  1  0
 17 18  1  0
 18 19  1  0
 19 20  1  0
 20 21  2  0
 21 22  1  0
 22 23  2  0
 23 24  1  0
 24 25  2  0
 27 26  1  1
 27 28  1  0
 28 29  1  0
 29 30  1  0
 30 31  2  0
 31 32  1  0
 32 33  2  0
 27 34  1  0
 34 35  1  0
 35 36  2  0
 36 37  1  0
 37 38  2  0
 38 39  1  0
 39 40  2  0
 40 41  1  0
 41 42  1  0
 42 43  2  0
 43 44  1  0
 44 45  2  0
 45 46  1  0
 45 47  1  0
 47 48  2  0
 48 49  1  0
 40 50  1  0
 50 51  2  0
 50 52  1  0
 52 53  1  0
 52 54  1  0
 54 55  2  0
 14  8  1  0
 25 20  1  0
 33 29  1  0
 55 35  1  0
 54 38  1  0
 48 42  1  0
M  END

