
     RDKit          3D

 52 55  0  0  0  0  0  0  0  0999 V2000
    4.1901   -3.6007    0.3914 C   0  0  0  0  0  0  0  0  0  0  0  0
    5.1629   -2.2687   -0.3226 S   0  0  0  0  0  0  0  0  0  0  0  0
    5.2124   -0.7850    0.6738 C   0  0  0  0  0  0  0  0  0  0  0  0
    3.8801   -0.0871    0.8051 C   0  0  0  0  0  0  0  0  0  0  0  0
    3.4350    0.2870   -0.5897 C   0  0  0  0  0  0  0  0  0  0  0  0
    2.1539    0.9662   -0.5421 N   0  0  0  0  0  0  0  0  0  0  0  0
    1.0545    0.2762    0.0062 C   0  0  0  0  0  0  0  0  0  0  0  0
    1.0566   -0.8710    0.4633 O   0  0  0  0  0  0  0  0  0  0  0  0
   -0.2839    1.0967    0.0112 C   0  0  2  0  0  0  0  0  0  0  0  0
    0.0275    1.8617    1.4227 C   0  0  0  0  0  0  0  0  0  0  0  0
   -1.1905    2.7499    1.6324 C   0  0  0  0  0  0  0  0  0  0  0  0
   -1.3088    3.7097    0.4776 C   0  0  0  0  0  0  0  0  0  0  0  0
   -0.1041    4.6046    0.3327 C   0  0  0  0  0  0  0  0  0  0  0  0
   -0.3530    5.4722   -0.8127 N   0  0  0  0  0  4  0  0  0  0  0  0
   -1.1690    0.0141    0.6683 N   0  0  0  0  0  0  0  0  0  0  0  0
   -2.2659   -0.4595   -0.0799 C   0  0  0  0  0  0  0  0  0  0  0  0
   -2.5716   -0.0846   -1.2020 O   0  0  0  0  0  0  0  0  0  0  0  0
   -3.1494   -1.5560    0.6053 C   0  0  2  0  0  0  0  0  0  0  0  0
   -2.1848   -2.8016    0.1795 C   0  0  0  0  0  0  0  0  0  0  0  0
   -3.0064   -3.6098   -0.7289 C   0  0  0  0  0  0  0  0  0  0  0  0
   -4.4174   -3.1729   -0.3657 C   0  0  0  0  0  0  0  0  0  0  0  0
   -4.1681   -1.7417   -0.5453 N   0  0  0  0  0  0  0  0  0  0  0  0
   -3.2749    2.2277    2.2319 C   0  0  0  0  0  0  0  0  0  0  0  0
   -4.0870    2.0892    0.7900 C   0  0  2  0  0  0  0  0  0  0  0  0
   -5.4710    1.5283    1.5203 C   0  0  0  0  0  0  0  0  0  0  0  0
   -6.3754    1.3214    0.4302 N   0  0  0  0  0  0  0  0  0  0  0  0
   -6.4842    0.1818   -0.2432 N   0  0  0  0  0  0  0  0  0  0  0  0
   -7.4105    0.3021   -1.1980 C   0  0  0  0  0  0  0  0  0  0  0  0
   -7.8893    1.5504   -1.1146 N   0  0  0  0  0  0  0  0  0  0  0  0
   -7.2465    2.1495   -0.1199 N   0  0  0  0  0  0  0  0  0  0  0  0
   -3.5100    0.6431    0.4988 N   0  0  0  0  0  0  0  0  0  0  0  0
   -2.1127    0.5358    0.4040 C   0  0  0  0  0  0  0  0  0  0  0  0
   -1.2415    1.5463    0.5387 N   0  0  0  0  0  0  0  0  0  0  0  0
    0.0935    1.3368    0.4289 C   0  0  0  0  0  0  0  0  0  0  0  0
    0.5777    0.0821    0.1772 C   0  0  0  0  0  0  0  0  0  0  0  0
    1.9087   -0.2218    0.0506 C   0  0  0  0  0  0  0  0  0  0  0  0
    2.3055   -1.5153   -0.2034 C   0  0  0  0  0  0  0  0  0  0  0  0
    3.6345   -1.8591   -0.3370 O   0  0  0  0  0  0  0  0  0  0  0  0
    4.6813   -0.9675   -0.2333 C   0  0  0  0  0  0  0  0  0  0  0  0
    5.6447   -1.1685    0.7508 C   0  0  0  0  0  0  0  0  0  0  0  0
    6.7052   -0.2946    0.8814 C   0  0  0  0  0  0  0  0  0  0  0  0
    6.8355    0.8076    0.0323 C   0  0  0  0  0  0  0  0  0  0  0  0
    7.8769    1.6520    0.1726 F   0  0  0  0  0  0  0  0  0  0  0  0
    5.8838    1.0137   -0.9464 C   0  0  0  0  0  0  0  0  0  0  0  0
    4.8293    0.1222   -1.0567 C   0  0  0  0  0  0  0  0  0  0  0  0
    3.8593    0.2866   -2.0144 F   0  0  0  0  0  0  0  0  0  0  0  0
    1.3581   -2.5050   -0.3302 C   0  0  0  0  0  0  0  0  0  0  0  0
    1.7099   -3.6990   -0.5639 O   0  0  0  0  0  0  0  0  0  0  0  0
    0.0713   -2.2212   -0.2097 N   0  0  0  0  0  0  0  0  0  0  0  0
   -0.9376   -3.2843   -0.3464 C   0  0  0  0  0  0  0  0  0  0  0  0
   -0.3134   -0.9518    0.0394 C   0  0  0  0  0  0  0  0  0  0  0  0
   -1.6213   -0.6886    0.1573 N   0  0  0  0  0  0  0  0  0  0  0  0
  1  2  1  0
  2  3  1  0
  3  4  1  0
  4  5  1  0
  5  6  1  0
  6  7  1  0
  7  8  2  0
  7  9  1  0
  9 10  1  1
 10 11  1  0
 11 12  1  0
 12 13  1  0
 13 14  1  0
  9 15  1  0
 15 16  1  0
 16 17  2  0
 18 16  1  6
 18 19  1  0
 19 20  1  0
 20 21  1  0
 21 22  1  0
 24 23  1  1
 24 25  1  0
 25 26  1  0
 26 27  1  0
 27 28  2  0
 28 29  1  0
 29 30  2  0
 24 31  1  0
 31 32  1  0
 32 33  2  0
 33 34  1  0
 34 35  2  0
 35 36  1  0
 36 37  2  0
 37 38  1  0
 38 39  1  0
 39 40  2  0
 40 41  1  0
 41 42  2  0
 42 43  1  0
 42 44  1  0
 44 45  2  0
 45 46  1  0
 37 47  1  0
 47 48  2  0
 47 49  1  0
 49 50  1  0
 49 51  1  0
 51 52  2  0
 22 18  1  0
 30 26  1  0
 52 32  1  0
 51 35  1  0
 45 39  1  0
M  CHG  1  14   1
M  END

