
     RDKit          3D

 48 50  0  0  0  0  0  0  0  0999 V2000
   -0.0078    3.4756    1.4524 C   0  0  0  0  0  0  0  0  0  0  0  0
    0.0452    2.4798    0.3019 C   0  0  0  0  0  0  0  0  0  0  0  0
   -0.6094    3.1266   -0.9299 C   0  0  0  0  0  0  0  0  0  0  0  0
   -0.6410    1.1814    0.5946 C   0  0  0  0  0  0  0  0  0  0  0  0
   -0.3310    0.4376   -0.9128 C   0  0  2  0  0  0  0  0  0  0  0  0
   -0.9974   -0.8715   -0.4121 N   0  0  0  0  0  0  0  0  0  0  0  0
   -2.4588   -0.7297   -0.1380 C   0  0  0  0  0  0  0  0  0  0  0  0
   -3.0042    0.3701   -0.2988 O   0  0  0  0  0  0  0  0  0  0  0  0
   -3.1671   -1.9674    0.3274 C   0  0  0  0  0  0  0  0  0  0  0  0
   -4.6100   -1.7767    0.4964 C   0  0  0  0  0  0  0  0  0  0  0  0
   -4.8730   -0.7995    1.4753 O   0  0  0  0  0  0  0  0  0  0  0  0
    1.1373    0.2130   -0.5993 C   0  0  0  0  0  0  0  0  0  0  0  0
    1.7432    0.7325    0.3901 O   0  0  0  0  0  0  0  0  0  0  0  0
    1.9192   -0.6476   -1.4814 N   0  0  0  0  0  0  0  0  0  0  0  0
    3.3364   -0.7071   -1.1522 C   0  0  0  0  0  0  0  0  0  0  0  0
    3.5197   -1.0569    0.4258 C   0  0  1  0  0  0  0  0  0  0  0  0
    3.8941   -2.7039    0.1578 C   0  0  0  0  0  0  0  0  0  0  0  0
    5.1045   -0.7563    0.3029 O   0  0  0  0  0  0  0  0  0  0  0  0
   -5.8853   -0.1016    1.1679 C   0  0  0  0  0  0  0  0  0  0  0  0
   -4.4730    0.6327    0.6702 C   0  0  2  0  0  0  0  0  0  0  0  0
   -4.6655    0.0831   -0.8957 C   0  0  0  0  0  0  0  0  0  0  0  0
   -5.9284    0.6736   -1.2827 N   0  0  0  0  0  0  0  0  0  0  0  0
   -6.0911    1.8606   -1.8602 N   0  0  0  0  0  0  0  0  0  0  0  0
   -7.4271    2.0281   -2.0525 C   0  0  0  0  0  0  0  0  0  0  0  0
   -8.0106    0.9279   -1.5793 N   0  0  0  0  0  0  0  0  0  0  0  0
   -7.0978    0.0940   -1.1062 N   0  0  0  0  0  0  0  0  0  0  0  0
   -3.5919   -0.6239    1.0767 N   0  0  0  0  0  0  0  0  0  0  0  0
   -2.2114   -0.4059    0.7992 C   0  0  0  0  0  0  0  0  0  0  0  0
   -1.6915    0.6922    0.2700 N   0  0  0  0  0  0  0  0  0  0  0  0
   -0.3788    0.8572    0.0239 C   0  0  0  0  0  0  0  0  0  0  0  0
    0.4859   -0.1898    0.3449 C   0  0  0  0  0  0  0  0  0  0  0  0
    1.8433   -0.0778    0.1150 C   0  0  0  0  0  0  0  0  0  0  0  0
    2.6811   -1.1437    0.4476 C   0  0  0  0  0  0  0  0  0  0  0  0
    4.0321   -1.0981    0.2462 O   0  0  0  0  0  0  0  0  0  0  0  0
    4.5825    0.0601   -0.3123 C   0  0  0  0  0  0  0  0  0  0  0  0
    3.7992    1.1419   -0.6590 C   0  0  0  0  0  0  0  0  0  0  0  0
    4.3432    2.2911   -1.2128 C   0  0  0  0  0  0  0  0  0  0  0  0
    5.7018    2.3887   -1.4369 C   0  0  0  0  0  0  0  0  0  0  0  0
    6.2228    3.5195   -1.9800 F   0  0  0  0  0  0  0  0  0  0  0  0
    6.4743    1.3006   -1.0862 C   0  0  0  0  0  0  0  0  0  0  0  0
    5.9362    0.1553   -0.5347 C   0  0  0  0  0  0  0  0  0  0  0  0
    6.7070   -0.9147   -0.1913 F   0  0  0  0  0  0  0  0  0  0  0  0
    2.1203   -2.2822    0.9993 C   0  0  0  0  0  0  0  0  0  0  0  0
    2.8806   -3.2385    1.2965 O   0  0  0  0  0  0  0  0  0  0  0  0
    0.8019   -2.3396    1.2011 N   0  0  0  0  0  0  0  0  0  0  0  0
    0.2560   -3.5499    1.7808 C   0  0  0  0  0  0  0  0  0  0  0  0
   -0.0465   -1.3330    0.8948 C   0  0  0  0  0  0  0  0  0  0  0  0
   -1.3694   -1.4081    1.1047 N   0  0  0  0  0  0  0  0  0  0  0  0
  1  2  1  0
  2  3  1  0
  2  4  1  0
  5  4  1  1
  5  6  1  0
  6  7  1  0
  7  8  2  0
  7  9  1  0
  9 10  1  0
 10 11  1  0
  5 12  1  0
 12 13  2  0
 12 14  1  0
 14 15  1  0
 15 16  1  0
 16 17  1  6
 16 18  1  0
 20 19  1  1
 20 21  1  0
 21 22  1  0
 22 23  1  0
 23 24  2  0
 24 25  1  0
 25 26  2  0
 20 27  1  0
 27 28  1  0
 28 29  2  0
 29 30  1  0
 30 31  2  0
 31 32  1  0
 32 33  2  0
 33 34  1  0
 34 35  1  0
 35 36  2  0
 36 37  1  0
 37 38  2  0
 38 39  1  0
 38 40  1  0
 40 41  2  0
 41 42  1  0
 33 43  1  0
 43 44  2  0
 43 45  1  0
 45 46  1  0
 45 47  1  0
 47 48  2  0
 26 22  1  0
 48 28  1  0
 47 31  1  0
 41 35  1  0
M  END

