
     RDKit          3D

 46 49  0  0  0  0  0  0  0  0999 V2000
    4.2108   -0.0516    2.0356 C   0  0  0  0  0  0  0  0  0  0  0  0
    3.8015    1.1034    0.9400 C   0  0  1  0  0  0  0  0  0  0  0  0
    5.2808    1.3161    0.5573 O   0  0  0  0  0  0  0  0  0  0  0  0
    3.5879    0.0423   -0.2681 C   0  0  0  0  0  0  0  0  0  0  0  0
    2.1536   -0.2045   -0.1210 N   0  0  0  0  0  0  0  0  0  0  0  0
    1.4393   -0.9743   -1.0608 C   0  0  0  0  0  0  0  0  0  0  0  0
    2.1948   -1.4274   -1.9885 O   0  0  0  0  0  0  0  0  0  0  0  0
    0.0435   -1.2103   -1.0288 C   0  0  0  0  0  0  0  0  0  0  0  0
   -0.7638   -0.8314    0.0974 N   0  0  0  0  0  0  0  0  0  0  0  0
   -2.1888   -0.6896   -0.1288 C   0  0  0  0  0  0  0  0  0  0  0  0
   -2.5545   -0.8807   -1.3225 O   0  0  0  0  0  0  0  0  0  0  0  0
   -3.1590   -0.3180    0.9968 C   0  0  2  0  0  0  0  0  0  0  0  0
   -4.4631    0.0144   -0.0666 C   0  0  0  0  0  0  0  0  0  0  0  0
   -4.1433    1.3238   -0.6496 C   0  0  0  0  0  0  0  0  0  0  0  0
   -2.6513    1.5407   -0.3406 C   0  0  0  0  0  0  0  0  0  0  0  0
   -2.7884    1.2470    1.0492 N   0  0  0  0  0  0  0  0  0  0  0  0
    4.1573    2.4858    1.8116 C   0  0  0  0  0  0  0  0  0  0  0  0
    4.5021    0.8827    1.7076 C   0  0  2  0  0  0  0  0  0  0  0  0
    5.8142    1.1803    0.7503 C   0  0  0  0  0  0  0  0  0  0  0  0
    6.3618   -0.1021    0.4743 N   0  0  0  0  0  0  0  0  0  0  0  0
    7.2780   -0.7011    1.2127 N   0  0  0  0  0  0  0  0  0  0  0  0
    7.5713   -1.9030    0.6653 C   0  0  0  0  0  0  0  0  0  0  0  0
    6.8211   -2.0342   -0.4218 N   0  0  0  0  0  0  0  0  0  0  0  0
    6.0954   -0.9294   -0.5175 N   0  0  0  0  0  0  0  0  0  0  0  0
    3.6107    0.5339    0.4780 N   0  0  0  0  0  0  0  0  0  0  0  0
    2.2460    0.7406    0.5420 C   0  0  0  0  0  0  0  0  0  0  0  0
    1.6890    1.2326    1.6388 N   0  0  0  0  0  0  0  0  0  0  0  0
    0.3887    1.4702    1.8064 C   0  0  0  0  0  0  0  0  0  0  0  0
   -0.3984    1.1552    0.7022 C   0  0  0  0  0  0  0  0  0  0  0  0
   -1.7589    1.3922    0.8470 C   0  0  0  0  0  0  0  0  0  0  0  0
   -2.5487    1.0831   -0.2423 C   0  0  0  0  0  0  0  0  0  0  0  0
   -3.9173    1.3054   -0.1389 O   0  0  0  0  0  0  0  0  0  0  0  0
   -4.7242    0.1598   -0.2994 C   0  0  0  0  0  0  0  0  0  0  0  0
   -5.6619    0.0880   -1.3078 C   0  0  0  0  0  0  0  0  0  0  0  0
   -6.4724   -1.0266   -1.4927 C   0  0  0  0  0  0  0  0  0  0  0  0
   -6.3438   -2.1059   -0.6436 C   0  0  0  0  0  0  0  0  0  0  0  0
   -7.1378   -3.2009   -0.8227 F   0  0  0  0  0  0  0  0  0  0  0  0
   -5.4099   -2.0305    0.3581 C   0  0  0  0  0  0  0  0  0  0  0  0
   -4.6132   -0.9228    0.5318 C   0  0  0  0  0  0  0  0  0  0  0  0
   -3.7027   -0.8987    1.5408 F   0  0  0  0  0  0  0  0  0  0  0  0
   -1.9838    0.5714   -1.3881 C   0  0  0  0  0  0  0  0  0  0  0  0
   -2.7616    0.3137   -2.3382 O   0  0  0  0  0  0  0  0  0  0  0  0
   -0.6595    0.3571   -1.4859 N   0  0  0  0  0  0  0  0  0  0  0  0
   -0.0840   -0.1787   -2.6915 C   0  0  0  0  0  0  0  0  0  0  0  0
    0.1469    0.6403   -0.4589 C   0  0  0  0  0  0  0  0  0  0  0  0
    1.4956    0.4415   -0.5075 N   0  0  0  0  0  0  0  0  0  0  0  0
  2  1  1  1
  2  3  1  0
  2  4  1  0
  4  5  1  0
  5  6  1  0
  6  7  2  0
  6  8  1  0
  8  9  1  0
  9 10  1  0
 10 11  2  0
 12 10  1  6
 12 13  1  0
 13 14  1  0
 14 15  1  0
 15 16  1  0
 18 17  1  6
 18 19  1  0
 19 20  1  0
 20 21  1  0
 21 22  2  0
 22 23  1  0
 23 24  2  0
 18 25  1  0
 25 26  1  0
 26 27  2  0
 27 28  1  0
 28 29  2  0
 29 30  1  0
 30 31  2  0
 31 32  1  0
 32 33  1  0
 33 34  2  0
 34 35  1  0
 35 36  2  0
 36 37  1  0
 36 38  1  0
 38 39  2  0
 39 40  1  0
 31 41  1  0
 41 42  2  0
 41 43  1  0
 43 44  1  0
 43 45  1  0
 45 46  2  0
 16 12  1  0
 24 20  1  0
 46 26  1  0
 45 29  1  0
 39 33  1  0
M  END

