
     RDKit          3D

 51 54  0  0  0  0  0  0  0  0999 V2000
    4.1606   -0.8551    1.1503 C   0  0  0  0  0  0  0  0  0  0  0  0
    4.6361   -1.0760   -0.4141 C   0  0  2  0  0  0  0  0  0  0  0  0
    6.0741   -0.3153   -0.2039 C   0  0  0  0  0  0  0  0  0  0  0  0
    5.8153    1.0315    0.2160 N   0  0  0  0  0  0  0  0  0  0  0  0
    5.6719    2.0126   -0.6482 N   0  0  0  0  0  0  0  0  0  0  0  0
    5.4393    3.1661   -0.0069 C   0  0  0  0  0  0  0  0  0  0  0  0
    5.4466    2.8460    1.2990 N   0  0  0  0  0  0  0  0  0  0  0  0
    5.6756    1.5506    1.4123 N   0  0  0  0  0  0  0  0  0  0  0  0
    3.8545    0.1856   -0.9368 N   0  0  0  0  0  0  0  0  0  0  0  0
    2.4316    0.0991   -0.6924 C   0  0  0  0  0  0  0  0  0  0  0  0
    1.6513    1.1027   -1.0858 N   0  0  0  0  0  0  0  0  0  0  0  0
    0.3288    1.0476   -0.8713 C   0  0  0  0  0  0  0  0  0  0  0  0
   -0.2697   -0.0362   -0.2429 C   0  0  0  0  0  0  0  0  0  0  0  0
   -1.5967   -0.1539    0.0036 C   0  0  0  0  0  0  0  0  0  0  0  0
   -2.1064   -1.2783    0.6399 C   0  0  0  0  0  0  0  0  0  0  0  0
   -3.4642   -1.3576    0.8714 O   0  0  0  0  0  0  0  0  0  0  0  0
   -4.3358   -0.3479    0.4878 C   0  0  0  0  0  0  0  0  0  0  0  0
   -3.8594    0.7844   -0.1477 C   0  0  0  0  0  0  0  0  0  0  0  0
   -4.6831    1.8028   -0.5424 C   0  0  0  0  0  0  0  0  0  0  0  0
   -6.0296    1.6677   -0.2844 C   0  0  0  0  0  0  0  0  0  0  0  0
   -6.8976    2.6498   -0.6547 F   0  0  0  0  0  0  0  0  0  0  0  0
   -6.5118    0.5283    0.3555 C   0  0  0  0  0  0  0  0  0  0  0  0
   -5.6806   -0.4811    0.7446 C   0  0  0  0  0  0  0  0  0  0  0  0
   -6.0980   -1.6022    1.3663 F   0  0  0  0  0  0  0  0  0  0  0  0
   -1.2825   -2.2917    1.0320 C   0  0  0  0  0  0  0  0  0  0  0  0
   -1.7724   -3.2871    1.6007 O   0  0  0  0  0  0  0  0  0  0  0  0
    0.0337   -2.1638    0.7819 N   0  0  0  0  0  0  0  0  0  0  0  0
    0.9484   -3.2127    1.1791 C   0  0  0  0  0  0  0  0  0  0  0  0
    0.5550   -1.0655    0.1571 C   0  0  0  0  0  0  0  0  0  0  0  0
    1.8647   -0.9505   -0.0856 N   0  0  0  0  0  0  0  0  0  0  0  0
   -0.2676   -3.1782    0.5616 C   0  0  0  0  0  0  0  0  0  0  0  0
   -0.4563   -1.5079    0.6385 C   0  0  2  0  0  0  0  0  0  0  0  0
   -0.9655   -1.4455   -0.8574 N   0  0  0  0  0  0  0  0  0  0  0  0
   -1.7038   -0.2510   -1.1081 C   0  0  0  0  0  0  0  0  0  0  0  0
   -1.8654    0.5706   -0.1910 O   0  0  0  0  0  0  0  0  0  0  0  0
   -2.2923    0.0464   -2.4555 C   0  0  0  0  0  0  0  0  0  0  0  0
   -3.1925    1.2506   -2.4389 C   0  0  0  0  0  0  0  0  0  0  0  0
   -4.3443    1.0053   -1.5386 C   0  0  0  0  0  0  0  0  0  0  0  0
   -4.4673    1.2580   -0.1986 C   0  0  0  0  0  0  0  0  0  0  0  0
   -5.7068    0.8641    0.2189 N   0  0  0  0  0  0  0  0  0  0  0  0
   -6.3570    0.3678   -0.8558 C   0  0  0  0  0  0  0  0  0  0  0  0
   -5.5312    0.4487   -1.9378 N   0  0  0  0  0  0  0  0  0  0  0  0
    1.0733   -1.2102    0.4122 C   0  0  0  0  0  0  0  0  0  0  0  0
    1.4200   -1.0907   -0.7435 O   0  0  0  0  0  0  0  0  0  0  0  0
    1.9651   -1.0913    1.4660 N   0  0  0  0  0  0  0  0  0  0  0  0
    3.3863   -0.8181    1.3282 C   0  0  0  0  0  0  0  0  0  0  0  0
    3.5903    0.5098    0.6065 C   0  0  0  0  0  0  0  0  0  0  0  0
    5.0467    0.8064    0.4562 C   0  0  0  0  0  0  0  0  0  0  0  0
    5.6946    0.9151    1.8371 C   0  0  0  0  0  0  0  0  0  0  0  0
    7.1753    1.2224    1.5942 C   0  0  0  0  0  0  0  0  0  0  0  0
    7.7982    1.3276    2.8943 N   0  0  0  0  0  4  0  0  0  0  0  0
  2  1  1  1
  2  3  1  0
  3  4  1  0
  4  5  1  0
  5  6  2  0
  6  7  1  0
  7  8  2  0
  2  9  1  0
  9 10  1  0
 10 11  2  0
 11 12  1  0
 12 13  2  0
 13 14  1  0
 14 15  2  0
 15 16  1  0
 16 17  1  0
 17 18  2  0
 18 19  1  0
 19 20  2  0
 20 21  1  0
 20 22  1  0
 22 23  2  0
 23 24  1  0
 15 25  1  0
 25 26  2  0
 25 27  1  0
 27 28  1  0
 27 29  1  0
 29 30  2  0
 32 31  1  6
 32 33  1  0
 33 34  1  0
 34 35  2  0
 34 36  1  0
 36 37  1  0
 37 38  1  0
 38 39  2  0
 39 40  1  0
 40 41  1  0
 41 42  2  0
 32 43  1  0
 43 44  2  0
 43 45  1  0
 45 46  1  0
 46 47  1  0
 47 48  1  0
 48 49  1  0
 49 50  1  0
 50 51  1  0
  8  4  1  0
 30 10  1  0
 42 38  1  0
 29 13  1  0
 23 17  1  0
M  CHG  1  51   1
M  END

