
     RDKit          3D

 50 53  0  0  0  0  0  0  0  0999 V2000
   -0.1026   -3.4349    1.2758 C   0  0  0  0  0  0  0  0  0  0  0  0
    0.1829   -2.4616    0.1610 C   0  0  0  0  0  0  0  0  0  0  0  0
    0.5732   -2.8597   -0.9863 O   0  0  0  0  0  0  0  0  0  0  0  0
   -0.0135   -1.1078    0.4830 N   0  0  0  0  0  0  0  0  0  0  0  0
    0.2664   -0.0465   -0.6275 C   0  0  1  0  0  0  0  0  0  0  0  0
   -0.5092    1.1638    0.1769 C   0  0  0  0  0  0  0  0  0  0  0  0
   -1.9020    0.6924    0.3076 C   0  0  0  0  0  0  0  0  0  0  0  0
   -2.2720   -0.0454    1.4013 C   0  0  0  0  0  0  0  0  0  0  0  0
   -3.5610   -0.5301    1.5707 C   0  0  0  0  0  0  0  0  0  0  0  0
   -4.5485   -0.2825    0.6208 C   0  0  0  0  0  0  0  0  0  0  0  0
   -5.8423   -0.7665    0.7824 O   0  0  0  0  0  0  0  0  0  0  0  0
   -4.1573    0.4620   -0.4714 C   0  0  0  0  0  0  0  0  0  0  0  0
   -2.8773    0.9456   -0.6445 C   0  0  0  0  0  0  0  0  0  0  0  0
    1.7259    0.3530   -0.0921 C   0  0  0  0  0  0  0  0  0  0  0  0
    2.4273   -0.5739    0.3469 O   0  0  0  0  0  0  0  0  0  0  0  0
    2.1133    1.6719   -0.1494 N   0  0  0  0  0  0  0  0  0  0  0  0
    3.3602    2.1783    0.2431 C   0  0  0  0  0  0  0  0  0  0  0  0
    4.5751    1.7478   -0.4738 C   0  0  0  0  0  0  0  0  0  0  0  0
    4.8073    0.2805   -0.3960 C   0  0  0  0  0  0  0  0  0  0  0  0
    5.7542    2.6135   -0.2088 C   0  0  0  0  0  0  0  0  0  0  0  0
    5.4090   -1.5093   -2.7284 C   0  0  0  0  0  0  0  0  0  0  0  0
    3.8125   -1.1421   -2.8626 C   0  0  2  0  0  0  0  0  0  0  0  0
    4.0492    0.4760   -2.8423 C   0  0  0  0  0  0  0  0  0  0  0  0
    4.6876    0.8334   -1.6243 N   0  0  0  0  0  0  0  0  0  0  0  0
    6.0061    0.8792   -1.4737 N   0  0  0  0  0  0  0  0  0  0  0  0
    6.2827    1.2479   -0.2156 C   0  0  0  0  0  0  0  0  0  0  0  0
    5.1257    1.4349    0.4280 N   0  0  0  0  0  0  0  0  0  0  0  0
    4.1850    1.1766   -0.4501 N   0  0  0  0  0  0  0  0  0  0  0  0
    3.5355   -1.2641   -1.3298 N   0  0  0  0  0  0  0  0  0  0  0  0
    2.2069   -1.0194   -0.9325 C   0  0  0  0  0  0  0  0  0  0  0  0
    1.2654   -0.7049   -1.8327 N   0  0  0  0  0  0  0  0  0  0  0  0
    0.0016   -0.4766   -1.4176 C   0  0  0  0  0  0  0  0  0  0  0  0
   -0.3320   -0.5617   -0.0908 C   0  0  0  0  0  0  0  0  0  0  0  0
   -1.6134   -0.3290    0.3197 C   0  0  0  0  0  0  0  0  0  0  0  0
   -1.9110   -0.4264    1.6838 C   0  0  0  0  0  0  0  0  0  0  0  0
   -3.2243   -0.1819    2.0544 O   0  0  0  0  0  0  0  0  0  0  0  0
   -4.2202    0.1434    1.1631 C   0  0  0  0  0  0  0  0  0  0  0  0
   -5.3436   -0.6357    1.0170 C   0  0  0  0  0  0  0  0  0  0  0  0
   -6.3503   -0.3238    0.1288 C   0  0  0  0  0  0  0  0  0  0  0  0
   -6.2420    0.8081   -0.6492 C   0  0  0  0  0  0  0  0  0  0  0  0
   -7.2178    1.1333   -1.5273 F   0  0  0  0  0  0  0  0  0  0  0  0
   -5.1097    1.5724   -0.4861 C   0  0  0  0  0  0  0  0  0  0  0  0
   -4.1013    1.2702    0.3959 C   0  0  0  0  0  0  0  0  0  0  0  0
   -3.0280    2.1064    0.4667 F   0  0  0  0  0  0  0  0  0  0  0  0
   -0.9309   -0.7482    2.5737 C   0  0  0  0  0  0  0  0  0  0  0  0
   -1.1776   -0.8392    3.7901 O   0  0  0  0  0  0  0  0  0  0  0  0
    0.3457   -0.9782    2.1491 N   0  0  0  0  0  0  0  0  0  0  0  0
    1.3953   -1.3206    3.0842 C   0  0  0  0  0  0  0  0  0  0  0  0
    0.6218   -0.8810    0.8273 C   0  0  0  0  0  0  0  0  0  0  0  0
    1.8723   -1.1027    0.3813 N   0  0  0  0  0  0  0  0  0  0  0  0
  1  2  1  0
  2  3  2  0
  2  4  1  0
  4  5  1  0
  5  6  1  1
  6  7  1  0
  7  8  2  0
  8  9  1  0
  9 10  2  0
 10 11  1  0
 10 12  1  0
 12 13  2  0
  5 14  1  0
 14 15  2  0
 14 16  1  0
 16 17  1  0
 17 18  1  0
 18 19  1  0
 18 20  1  0
 22 21  1  1
 22 23  1  0
 23 24  1  0
 24 25  1  0
 25 26  2  0
 26 27  1  0
 27 28  2  0
 22 29  1  0
 29 30  1  0
 30 31  2  0
 31 32  1  0
 32 33  2  0
 33 34  1  0
 34 35  2  0
 35 36  1  0
 36 37  1  0
 37 38  2  0
 38 39  1  0
 39 40  2  0
 40 41  1  0
 40 42  1  0
 42 43  2  0
 43 44  1  0
 35 45  1  0
 45 46  2  0
 45 47  1  0
 47 48  1  0
 47 49  1  0
 49 50  2  0
 13  7  1  0
 28 24  1  0
 50 30  1  0
 49 33  1  0
 43 37  1  0
M  END

