
     RDKit          3D

 55 57  0  0  0  0  0  0  0  0999 V2000
    4.4696   -2.0432    1.2088 C   0  0  0  0  0  0  0  0  0  0  0  0
    4.9135   -0.9148    0.0460 C   0  0  2  0  0  0  0  0  0  0  0  0
    6.0756   -0.2594    1.0512 C   0  0  0  0  0  0  0  0  0  0  0  0
    6.5860    0.7820    0.1650 N   0  0  0  0  0  0  0  0  0  0  0  0
    6.1563    2.0061    0.0686 N   0  0  0  0  0  0  0  0  0  0  0  0
    6.9006    2.6216   -0.8614 C   0  0  0  0  0  0  0  0  0  0  0  0
    7.7912    1.7345   -1.3234 N   0  0  0  0  0  0  0  0  0  0  0  0
    7.5708    0.6186   -0.6736 N   0  0  0  0  0  0  0  0  0  0  0  0
    3.8116    0.1158    0.5306 N   0  0  0  0  0  0  0  0  0  0  0  0
    2.4959   -0.3849    0.4424 C   0  0  0  0  0  0  0  0  0  0  0  0
    2.2296   -1.6172   -0.0110 N   0  0  0  0  0  0  0  0  0  0  0  0
    0.9731   -2.0697   -0.0853 C   0  0  0  0  0  0  0  0  0  0  0  0
   -0.0642   -1.2764    0.3028 C   0  0  0  0  0  0  0  0  0  0  0  0
   -1.3966   -1.6851    0.2514 C   0  0  0  0  0  0  0  0  0  0  0  0
   -2.4157   -0.8477    0.6551 C   0  0  0  0  0  0  0  0  0  0  0  0
   -3.7310   -1.2882    0.5901 O   0  0  0  0  0  0  0  0  0  0  0  0
   -4.6610   -0.6049   -0.1974 C   0  0  0  0  0  0  0  0  0  0  0  0
   -4.3430    0.5123   -0.9350 C   0  0  0  0  0  0  0  0  0  0  0  0
   -5.3016    1.1616   -1.7058 C   0  0  0  0  0  0  0  0  0  0  0  0
   -6.6040    0.7106   -1.7591 C   0  0  0  0  0  0  0  0  0  0  0  0
   -7.5435    1.3417   -2.5105 F   0  0  0  0  0  0  0  0  0  0  0  0
   -6.9235   -0.4073   -1.0213 C   0  0  0  0  0  0  0  0  0  0  0  0
   -5.9648   -1.0521   -0.2540 C   0  0  0  0  0  0  0  0  0  0  0  0
   -6.3144   -2.1551    0.4637 F   0  0  0  0  0  0  0  0  0  0  0  0
   -2.0751    0.4096    1.1122 C   0  0  0  0  0  0  0  0  0  0  0  0
   -2.9917    1.1892    1.4854 O   0  0  0  0  0  0  0  0  0  0  0  0
   -0.8003    0.8308    1.1730 N   0  0  0  0  0  0  0  0  0  0  0  0
   -0.5245    2.1554    1.6612 C   0  0  0  0  0  0  0  0  0  0  0  0
    0.2027   -0.0015    0.7726 C   0  0  0  0  0  0  0  0  0  0  0  0
    1.4784    0.4177    0.8325 N   0  0  0  0  0  0  0  0  0  0  0  0
    5.7884    2.1680   -0.5216 N   0  0  0  0  0  0  0  0  0  0  0  0
    5.4697    0.7793   -0.2524 C   0  0  0  0  0  0  0  0  0  0  0  0
    5.4796    0.4506    0.9678 N   0  0  0  0  0  4  0  0  0  0  0  0
    5.1724   -0.1217   -1.2673 N   0  0  0  0  0  0  0  0  0  0  0  0
    4.8458   -1.4440   -1.2199 C   0  0  0  0  0  0  0  0  0  0  0  0
    3.7159   -2.1145   -0.7346 C   0  0  0  0  0  0  0  0  0  0  0  0
    3.1315   -2.1233    0.5855 C   0  0  0  0  0  0  0  0  0  0  0  0
    2.6285   -0.8277    1.0656 C   0  0  0  0  0  0  0  0  0  0  0  0
    1.5957   -0.2053    0.2861 N   0  0  0  0  0  0  0  0  0  0  0  0
    0.3759   -0.9264    0.1201 C   0  0  0  0  0  0  0  0  0  0  0  0
    0.1278   -2.0154    0.5713 O   0  0  0  0  0  0  0  0  0  0  0  0
   -0.7243   -0.1302   -0.7733 C   0  0  2  0  0  0  0  0  0  0  0  0
   -1.2471    0.7831    0.5147 C   0  0  0  0  0  0  0  0  0  0  0  0
    0.0314    1.5023    0.8948 C   0  0  0  0  0  0  0  0  0  0  0  0
    0.5844    2.3540   -0.2040 C   0  0  0  0  0  0  0  0  0  0  0  0
   -0.4230    3.4153   -0.5990 C   0  0  0  0  0  0  0  0  0  0  0  0
    0.1485    4.2046   -1.6516 N   0  0  0  0  0  4  0  0  0  0  0  0
   -1.8684   -1.2155   -0.7329 N   0  0  0  0  0  0  0  0  0  0  0  0
   -3.1118   -0.9144   -0.2392 C   0  0  0  0  0  0  0  0  0  0  0  0
   -3.2900    0.2600    0.1756 O   0  0  0  0  0  0  0  0  0  0  0  0
   -4.1702   -1.9503   -0.2127 C   0  0  0  0  0  0  0  0  0  0  0  0
   -5.4829   -1.5220    0.3013 C   0  0  0  0  0  0  0  0  0  0  0  0
   -6.0745   -0.4361   -0.5064 C   0  0  0  0  0  0  0  0  0  0  0  0
   -6.8967   -0.7111   -1.5842 O   0  0  0  0  0  1  0  0  0  0  0  0
   -5.8064    0.7405   -0.1823 O   0  0  0  0  0  0  0  0  0  0  0  0
  2  1  1  1
  2  3  1  0
  3  4  1  0
  4  5  1  0
  5  6  2  0
  6  7  1  0
  7  8  2  0
  2  9  1  0
  9 10  1  0
 10 11  2  0
 11 12  1  0
 12 13  2  0
 13 14  1  0
 14 15  2  0
 15 16  1  0
 16 17  1  0
 17 18  2  0
 18 19  1  0
 19 20  2  0
 20 21  1  0
 20 22  1  0
 22 23  2  0
 23 24  1  0
 15 25  1  0
 25 26  2  0
 25 27  1  0
 27 28  1  0
 27 29  1  0
 29 30  2  0
 31 32  1  0
 32 33  2  0
 32 34  1  0
 34 35  1  0
 35 36  1  0
 36 37  1  0
 37 38  1  0
 38 39  1  0
 39 40  1  0
 40 41  2  0
 40 42  1  0
 42 43  1  1
 43 44  1  0
 44 45  1  0
 45 46  1  0
 46 47  1  0
 42 48  1  0
 48 49  1  0
 49 50  2  0
 49 51  1  0
 51 52  1  0
 52 53  1  0
 53 54  1  0
 53 55  2  0
  8  4  1  0
 30 10  1  0
 29 13  1  0
 23 17  1  0
M  CHG  2  33   1  47   1
M  RAD  1  54   2
M  END

