
     RDKit          3D

 48 50  0  0  0  0  0  0  0  0999 V2000
    4.2526   -2.4996   -0.8733 C   0  0  0  0  0  0  0  0  0  0  0  0
    3.6455   -2.0274    0.4381 C   0  0  0  0  0  0  0  0  0  0  0  0
    2.5131   -1.0999    0.1923 C   0  0  0  0  0  0  0  0  0  0  0  0
    2.2188   -0.8151   -0.9682 O   0  0  0  0  0  0  0  0  0  0  0  0
    1.7899   -0.5520    1.1714 N   0  0  0  0  0  0  0  0  0  0  0  0
    0.6349    0.3801    1.1671 C   0  0  1  0  0  0  0  0  0  0  0  0
    1.2650    1.7576    0.7763 C   0  0  0  0  0  0  0  0  0  0  0  0
    1.9408    1.9305   -0.4300 C   0  0  0  0  0  0  0  0  0  0  0  0
    1.4046    2.0810   -1.7039 O   0  0  0  0  0  1  0  0  0  0  0  0
    3.2275    1.9679   -0.4590 O   0  0  0  0  0  0  0  0  0  0  0  0
   -0.3107    0.0152    0.0616 C   0  0  0  0  0  0  0  0  0  0  0  0
   -0.2709   -0.9032   -0.7075 O   0  0  0  0  0  0  0  0  0  0  0  0
   -1.3948    0.8791   -0.0885 N   0  0  0  0  0  0  0  0  0  0  0  0
   -2.4571    0.8734   -0.9724 C   0  0  0  0  0  0  0  0  0  0  0  0
   -3.4312   -0.1272   -1.1357 C   0  0  0  0  0  0  0  0  0  0  0  0
   -4.3696   -0.5970   -0.1021 C   0  0  0  0  0  0  0  0  0  0  0  0
   -5.2106   -1.6976   -0.7885 C   0  0  0  0  0  0  0  0  0  0  0  0
   -5.4477    0.4341    0.2636 C   0  0  0  0  0  0  0  0  0  0  0  0
   -3.8721    1.7432    0.8862 C   0  0  0  0  0  0  0  0  0  0  0  0
   -4.1292    2.2200   -0.6807 C   0  0  2  0  0  0  0  0  0  0  0  0
   -5.7717    2.1444   -0.5533 C   0  0  0  0  0  0  0  0  0  0  0  0
   -6.1334    0.8180   -0.2141 N   0  0  0  0  0  0  0  0  0  0  0  0
   -6.2948    0.2196    0.9567 N   0  0  0  0  0  0  0  0  0  0  0  0
   -6.6435   -1.0559    0.7871 C   0  0  0  0  0  0  0  0  0  0  0  0
   -6.7002   -1.2551   -0.5351 N   0  0  0  0  0  0  0  0  0  0  0  0
   -6.3923   -0.1240   -1.1116 N   0  0  0  0  0  0  0  0  0  0  0  0
   -3.9636    0.7693   -1.2694 N   0  0  0  0  0  0  0  0  0  0  0  0
   -2.6801    0.2217   -0.9919 C   0  0  0  0  0  0  0  0  0  0  0  0
   -2.3487   -1.0246   -1.4203 N   0  0  0  0  0  0  0  0  0  0  0  0
   -1.1409   -1.5408   -1.1596 C   0  0  0  0  0  0  0  0  0  0  0  0
   -0.1635   -0.8383   -0.4418 C   0  0  0  0  0  0  0  0  0  0  0  0
    1.0455   -1.3848   -0.1948 C   0  0  0  0  0  0  0  0  0  0  0  0
    2.0121   -0.6142    0.5492 C   0  0  0  0  0  0  0  0  0  0  0  0
    3.1846   -1.2259    0.7547 O   0  0  0  0  0  0  0  0  0  0  0  0
    4.4627   -1.0247    0.3807 C   0  0  0  0  0  0  0  0  0  0  0  0
    4.9849   -2.0216   -0.5164 C   0  0  0  0  0  0  0  0  0  0  0  0
    6.2368   -1.9849   -0.9897 C   0  0  0  0  0  0  0  0  0  0  0  0
    7.1059   -0.9522   -0.6221 C   0  0  0  0  0  0  0  0  0  0  0  0
    8.3648   -0.9450   -1.1198 F   0  0  0  0  0  0  0  0  0  0  0  0
    6.6150   -0.0045    0.2298 C   0  0  0  0  0  0  0  0  0  0  0  0
    5.3188   -0.0354    0.7259 C   0  0  0  0  0  0  0  0  0  0  0  0
    4.9481    0.9412    1.6138 F   0  0  0  0  0  0  0  0  0  0  0  0
    1.5975    0.6245    0.9416 C   0  0  0  0  0  0  0  0  0  0  0  0
    2.3034    1.4166    1.5944 O   0  0  0  0  0  0  0  0  0  0  0  0
    0.3523    1.1325    0.6617 N   0  0  0  0  0  0  0  0  0  0  0  0
   -0.0191    2.4748    1.1176 C   0  0  0  0  0  0  0  0  0  0  0  0
   -0.5378    0.4203   -0.0254 C   0  0  0  0  0  0  0  0  0  0  0  0
   -1.7412    0.8856   -0.3073 N   0  0  0  0  0  0  0  0  0  0  0  0
  1  2  1  0
  2  3  1  0
  3  4  2  0
  3  5  1  0
  5  6  1  0
  6  7  1  6
  7  8  1  0
  8  9  1  0
  8 10  2  0
  6 11  1  0
 11 12  2  0
 11 13  1  0
 13 14  1  0
 14 15  1  0
 15 16  1  0
 16 17  1  0
 16 18  1  0
 20 19  1  1
 20 21  1  0
 21 22  1  0
 22 23  1  0
 23 24  2  0
 24 25  1  0
 25 26  2  0
 20 27  1  0
 27 28  1  0
 28 29  2  0
 29 30  1  0
 30 31  2  0
 31 32  1  0
 32 33  2  0
 33 34  1  0
 34 35  1  0
 35 36  2  0
 36 37  1  0
 37 38  2  0
 38 39  1  0
 38 40  1  0
 40 41  2  0
 41 42  1  0
 33 43  1  0
 43 44  2  0
 43 45  1  0
 45 46  1  0
 45 47  1  0
 47 48  2  0
 26 22  1  0
 48 28  1  0
 47 31  1  0
 41 35  1  0
M  RAD  1   9   2
M  END

