
     RDKit          3D

 50 52  0  0  0  0  0  0  0  0999 V2000
    1.3251   -3.9702    0.6440 C   0  0  0  0  0  0  0  0  0  0  0  0
    1.0474   -2.9391   -0.3624 N   0  0  0  0  0  0  0  0  0  0  0  0
    0.5916   -1.6572   -0.0556 C   0  0  0  0  0  0  0  0  0  0  0  0
    0.3781   -1.2543    1.0905 O   0  0  0  0  0  0  0  0  0  0  0  0
    0.3344   -0.6769   -1.2741 C   0  0  2  0  0  0  0  0  0  0  0  0
    1.6985    0.2356   -0.9744 C   0  0  0  0  0  0  0  0  0  0  0  0
    1.5579    0.7847    0.3698 C   0  0  0  0  0  0  0  0  0  0  0  0
    2.5983    1.6242    0.8662 C   0  0  0  0  0  0  0  0  0  0  0  0
    3.8936    1.1309    1.0079 N   0  0  0  0  0  0  0  0  0  0  0  0
    4.6886    0.6852   -0.0530 C   0  0  0  0  0  0  0  0  0  0  0  0
    6.0135    0.2149    0.2812 N   0  0  0  0  0  0  0  0  0  0  0  0
    4.3353    0.6733   -1.2639 N   0  0  0  0  0  4  0  0  0  0  0  0
   -0.6242    0.3309   -0.5077 N   0  0  0  0  0  0  0  0  0  0  0  0
   -2.0047   -0.0052   -0.6279 C   0  0  0  0  0  0  0  0  0  0  0  0
   -2.3163   -1.0053   -1.2985 O   0  0  0  0  0  0  0  0  0  0  0  0
   -3.0125    0.8480    0.0533 C   0  0  0  0  0  0  0  0  0  0  0  0
   -4.3730    0.2349   -0.2540 C   0  0  0  0  0  0  0  0  0  0  0  0
   -5.4075    1.1037    0.4271 C   0  0  0  0  0  0  0  0  0  0  0  0
   -5.2091    1.1664    1.9086 C   0  0  0  0  0  0  0  0  0  0  0  0
   -5.5152    2.4755   -0.2291 C   0  0  0  0  0  0  0  0  0  0  0  0
    3.9481   -0.4088   -1.4416 C   0  0  0  0  0  0  0  0  0  0  0  0
    4.0666    1.2375   -1.6256 C   0  0  2  0  0  0  0  0  0  0  0  0
    5.6995    1.3495   -1.4170 C   0  0  0  0  0  0  0  0  0  0  0  0
    6.0754    0.8664   -0.1599 N   0  0  0  0  0  0  0  0  0  0  0  0
    6.2064    1.4526    1.0216 N   0  0  0  0  0  0  0  0  0  0  0  0
    6.5977    0.5580    1.9442 C   0  0  0  0  0  0  0  0  0  0  0  0
    6.7122   -0.6210    1.3107 N   0  0  0  0  0  0  0  0  0  0  0  0
    6.3991   -0.4197    0.0655 N   0  0  0  0  0  0  0  0  0  0  0  0
    3.7421    1.5253   -0.1036 N   0  0  0  0  0  0  0  0  0  0  0  0
    2.4705    1.0329    0.2818 C   0  0  0  0  0  0  0  0  0  0  0  0
    2.1040    1.2261    1.5471 N   0  0  0  0  0  0  0  0  0  0  0  0
    0.9348    0.8046    2.0089 C   0  0  0  0  0  0  0  0  0  0  0  0
    0.0570    0.1452    1.1748 C   0  0  0  0  0  0  0  0  0  0  0  0
   -1.1689   -0.3197    1.5802 C   0  0  0  0  0  0  0  0  0  0  0  0
   -2.0439   -0.9787    0.7428 C   0  0  0  0  0  0  0  0  0  0  0  0
   -3.2468   -1.4148    1.2097 O   0  0  0  0  0  0  0  0  0  0  0  0
   -4.4527   -0.9797    0.6756 C   0  0  0  0  0  0  0  0  0  0  0  0
   -5.3437   -1.8709    0.1138 C   0  0  0  0  0  0  0  0  0  0  0  0
   -6.5460   -1.4561   -0.4213 C   0  0  0  0  0  0  0  0  0  0  0  0
   -6.9175   -0.1276   -0.4210 C   0  0  0  0  0  0  0  0  0  0  0  0
   -8.1005    0.2858   -0.9468 F   0  0  0  0  0  0  0  0  0  0  0  0
   -6.0261    0.7617    0.1408 C   0  0  0  0  0  0  0  0  0  0  0  0
   -4.8236    0.3494    0.6762 C   0  0  0  0  0  0  0  0  0  0  0  0
   -3.9342    1.2211    1.2346 F   0  0  0  0  0  0  0  0  0  0  0  0
   -1.6314   -1.1626   -0.5654 C   0  0  0  0  0  0  0  0  0  0  0  0
   -2.3752   -1.7548   -1.3874 O   0  0  0  0  0  0  0  0  0  0  0  0
   -0.4190   -0.7089   -0.9874 N   0  0  0  0  0  0  0  0  0  0  0  0
   -0.0168   -0.9183   -2.3666 C   0  0  0  0  0  0  0  0  0  0  0  0
    0.4157   -0.0677   -0.1453 C   0  0  0  0  0  0  0  0  0  0  0  0
    1.6173    0.3931   -0.5249 N   0  0  0  0  0  0  0  0  0  0  0  0
  1  2  1  0
  2  3  1  0
  3  4  2  0
  3  5  1  0
  5  6  1  1
  6  7  1  0
  7  8  1  0
  8  9  1  0
  9 10  1  0
 10 11  1  0
 10 12  2  0
  5 13  1  0
 13 14  1  0
 14 15  2  0
 14 16  1  0
 16 17  1  0
 17 18  1  0
 18 19  1  0
 18 20  1  0
 22 21  1  1
 22 23  1  0
 23 24  1  0
 24 25  1  0
 25 26  2  0
 26 27  1  0
 27 28  2  0
 22 29  1  0
 29 30  1  0
 30 31  2  0
 31 32  1  0
 32 33  2  0
 33 34  1  0
 34 35  2  0
 35 36  1  0
 36 37  1  0
 37 38  2  0
 38 39  1  0
 39 40  2  0
 40 41  1  0
 40 42  1  0
 42 43  2  0
 43 44  1  0
 35 45  1  0
 45 46  2  0
 45 47  1  0
 47 48  1  0
 47 49  1  0
 49 50  2  0
 28 24  1  0
 50 30  1  0
 49 33  1  0
 43 37  1  0
M  CHG  1  12   1
M  END

