
     RDKit          3D

 51 53  0  0  0  0  0  0  0  0999 V2000
    1.1607    4.3110   -0.0915 C   0  0  0  0  0  0  0  0  0  0  0  0
    1.6869    3.0347    0.5987 C   0  0  0  0  0  0  0  0  0  0  0  0
    0.3229    2.3734    1.1535 C   0  0  2  0  0  0  0  0  0  0  0  0
    1.0029    1.0834    1.8257 C   0  0  0  0  0  0  0  0  0  0  0  0
   -0.1444    1.6742   -0.3502 C   0  0  2  0  0  0  0  0  0  0  0  0
   -1.3551    1.0529    0.1074 N   0  0  0  0  0  0  0  0  0  0  0  0
   -1.9458   -0.1634   -0.0393 C   0  0  0  0  0  0  0  0  0  0  0  0
   -1.3512   -1.0377   -0.7526 O   0  0  0  0  0  0  0  0  0  0  0  0
   -3.2733   -0.5424    0.5983 C   0  0  0  0  0  0  0  0  0  0  0  0
   -3.6540   -1.9371    0.2426 C   0  0  0  0  0  0  0  0  0  0  0  0
   -5.0081   -2.2018    0.8858 C   0  0  0  0  0  0  0  0  0  0  0  0
   -5.4557   -3.6088    0.5676 C   0  0  0  0  0  0  0  0  0  0  0  0
   -5.9795   -1.1812    0.2744 C   0  0  0  0  0  0  0  0  0  0  0  0
    1.0201    0.6195   -0.4738 C   0  0  0  0  0  0  0  0  0  0  0  0
    0.9594   -0.4988   -0.0470 O   0  0  0  0  0  0  0  0  0  0  0  0
    2.1417    1.1739   -1.1554 N   0  0  0  0  0  0  0  0  0  0  0  0
    3.3368    0.5712   -1.4511 C   0  0  0  0  0  0  0  0  0  0  0  0
    4.2694    0.0632   -0.4752 C   0  0  0  0  0  0  0  0  0  0  0  0
    3.8375   -1.0475    0.3958 C   0  0  0  0  0  0  0  0  0  0  0  0
    3.5126   -2.2680   -0.4819 C   0  0  0  0  0  0  0  0  0  0  0  0
    4.9164   -1.4708    1.3883 C   0  0  0  0  0  0  0  0  0  0  0  0
    3.4922    1.1656   -1.7561 C   0  0  0  0  0  0  0  0  0  0  0  0
    4.1242    1.0965   -0.2347 C   0  0  2  0  0  0  0  0  0  0  0  0
    5.6677    0.8436   -0.8026 C   0  0  0  0  0  0  0  0  0  0  0  0
    6.4654    0.7425    0.4145 N   0  0  0  0  0  0  0  0  0  0  0  0
    7.0699    1.7244    1.0683 N   0  0  0  0  0  0  0  0  0  0  0  0
    7.6807    1.1249    2.1325 C   0  0  0  0  0  0  0  0  0  0  0  0
    7.4340   -0.1786    2.0946 N   0  0  0  0  0  0  0  0  0  0  0  0
    6.6867   -0.3923    1.0327 N   0  0  0  0  0  0  0  0  0  0  0  0
    3.8364   -0.4402   -0.0853 N   0  0  0  0  0  0  0  0  0  0  0  0
    2.4808   -0.7989   -0.1918 C   0  0  0  0  0  0  0  0  0  0  0  0
    2.0614   -2.0905   -0.0856 N   0  0  0  0  0  0  0  0  0  0  0  0
    0.7599   -2.4212   -0.1895 C   0  0  0  0  0  0  0  0  0  0  0  0
   -0.2038   -1.4551   -0.4091 C   0  0  0  0  0  0  0  0  0  0  0  0
   -1.5469   -1.7516   -0.5215 C   0  0  0  0  0  0  0  0  0  0  0  0
   -2.4932   -0.7555   -0.7428 C   0  0  0  0  0  0  0  0  0  0  0  0
   -3.8541   -1.0387   -0.8587 O   0  0  0  0  0  0  0  0  0  0  0  0
   -4.8055   -0.5021    0.0027 C   0  0  0  0  0  0  0  0  0  0  0  0
   -5.8479    0.2914   -0.4277 C   0  0  0  0  0  0  0  0  0  0  0  0
   -6.7587    0.7932    0.4761 C   0  0  0  0  0  0  0  0  0  0  0  0
   -6.6881    0.5413    1.8304 C   0  0  0  0  0  0  0  0  0  0  0  0
   -7.6136    1.0604    2.6873 F   0  0  0  0  0  0  0  0  0  0  0  0
   -5.6495   -0.2511    2.2710 C   0  0  0  0  0  0  0  0  0  0  0  0
   -4.7332   -0.7554    1.3572 C   0  0  0  0  0  0  0  0  0  0  0  0
   -3.6914   -1.5453    1.7668 F   0  0  0  0  0  0  0  0  0  0  0  0
   -2.0041    0.5323   -0.8408 C   0  0  0  0  0  0  0  0  0  0  0  0
   -2.7770    1.5044   -1.0402 O   0  0  0  0  0  0  0  0  0  0  0  0
   -0.6923    0.8126   -0.7299 N   0  0  0  0  0  0  0  0  0  0  0  0
   -0.1786    2.1699   -0.8334 C   0  0  0  0  0  0  0  0  0  0  0  0
    0.2321   -0.1512   -0.5149 C   0  0  0  0  0  0  0  0  0  0  0  0
    1.5463    0.1249   -0.4032 N   0  0  0  0  0  0  0  0  0  0  0  0
  1  2  1  0
  2  3  1  0
  3  4  1  1
  3  5  1  0
  5  6  1  1
  6  7  1  0
  7  8  2  0
  7  9  1  0
  9 10  1  0
 10 11  1  0
 11 12  1  0
 11 13  1  0
  5 14  1  0
 14 15  2  0
 14 16  1  0
 16 17  1  0
 17 18  1  0
 18 19  1  0
 19 20  1  0
 19 21  1  0
 23 22  1  6
 23 24  1  0
 24 25  1  0
 25 26  1  0
 26 27  2  0
 27 28  1  0
 28 29  2  0
 23 30  1  0
 30 31  1  0
 31 32  2  0
 32 33  1  0
 33 34  2  0
 34 35  1  0
 35 36  2  0
 36 37  1  0
 37 38  1  0
 38 39  2  0
 39 40  1  0
 40 41  2  0
 41 42  1  0
 41 43  1  0
 43 44  2  0
 44 45  1  0
 36 46  1  0
 46 47  2  0
 46 48  1  0
 48 49  1  0
 48 50  1  0
 50 51  2  0
 29 25  1  0
 51 31  1  0
 50 34  1  0
 44 38  1  0
M  END

