
     RDKit          3D

 47 50  0  0  0  0  0  0  0  0999 V2000
    0.1012    5.0598   -0.5681 C   0  0  0  0  0  0  0  0  0  0  0  0
   -0.0171    3.8073    0.2673 C   0  0  0  0  0  0  0  0  0  0  0  0
    0.3253    2.6570   -0.5355 N   0  0  0  0  0  0  0  0  0  0  0  0
    0.3145    1.3307   -0.0497 C   0  0  0  0  0  0  0  0  0  0  0  0
    0.0139    1.0726    1.0733 O   0  0  0  0  0  0  0  0  0  0  0  0
    0.7473    0.3227   -1.1849 C   0  0  2  0  0  0  0  0  0  0  0  0
   -0.7486    0.0942   -1.8529 C   0  0  0  0  0  0  0  0  0  0  0  0
   -1.6520   -0.4538   -0.8869 C   0  0  0  0  0  0  0  0  0  0  0  0
   -1.8858   -1.7922   -0.6734 C   0  0  0  0  0  0  0  0  0  0  0  0
   -2.7822   -1.9566    0.3149 N   0  0  0  0  0  0  0  0  0  0  0  0
   -3.1184   -0.7318    0.7308 C   0  0  0  0  0  0  0  0  0  0  0  0
   -2.4361    0.1558    0.0043 N   0  0  0  0  0  0  0  0  0  0  0  0
    0.6725   -0.9553   -0.2809 N   0  0  0  0  0  0  0  0  0  0  0  0
    1.9169   -1.5698   -0.0235 C   0  0  0  0  0  0  0  0  0  0  0  0
    2.9667   -1.0622   -0.5298 O   0  0  0  0  0  0  0  0  0  0  0  0
    2.0589   -2.7825    0.8115 C   0  0  0  0  0  0  0  0  0  0  0  0
    3.5230   -3.1958    0.8991 C   0  0  0  0  0  0  0  0  0  0  0  0
    5.8754   -1.6188    0.9178 C   0  0  0  0  0  0  0  0  0  0  0  0
    4.7655   -1.1344   -0.2363 C   0  0  2  0  0  0  0  0  0  0  0  0
    4.8080    0.4693    0.2213 C   0  0  0  0  0  0  0  0  0  0  0  0
    6.1457    0.9058    0.0560 N   0  0  0  0  0  0  0  0  0  0  0  0
    7.0056    0.7945    1.0602 N   0  0  0  0  0  0  0  0  0  0  0  0
    8.2009    1.2541    0.7154 C   0  0  0  0  0  0  0  0  0  0  0  0
    8.0787    1.6717   -0.5657 N   0  0  0  0  0  0  0  0  0  0  0  0
    6.8178    1.4430   -0.9278 N   0  0  0  0  0  0  0  0  0  0  0  0
    3.5490   -1.4448    0.7121 N   0  0  0  0  0  0  0  0  0  0  0  0
    2.2743   -1.1865    0.1706 C   0  0  0  0  0  0  0  0  0  0  0  0
    2.1811   -0.7100   -1.0728 N   0  0  0  0  0  0  0  0  0  0  0  0
    0.9739   -0.4609   -1.5972 C   0  0  0  0  0  0  0  0  0  0  0  0
   -0.1602   -0.7027   -0.8381 C   0  0  0  0  0  0  0  0  0  0  0  0
   -1.4304   -0.4604   -1.3378 C   0  0  0  0  0  0  0  0  0  0  0  0
   -2.5323   -0.7152   -0.5479 C   0  0  0  0  0  0  0  0  0  0  0  0
   -3.7764   -0.4719   -1.0531 O   0  0  0  0  0  0  0  0  0  0  0  0
   -4.6010    0.4349   -0.4196 C   0  0  0  0  0  0  0  0  0  0  0  0
   -4.2157    1.1192    0.7236 C   0  0  0  0  0  0  0  0  0  0  0  0
   -5.0985    2.0014    1.2867 C   0  0  0  0  0  0  0  0  0  0  0  0
   -6.3430    2.2221    0.7518 C   0  0  0  0  0  0  0  0  0  0  0  0
   -7.1613    3.1034    1.3564 F   0  0  0  0  0  0  0  0  0  0  0  0
   -6.6924    1.5330   -0.3738 C   0  0  0  0  0  0  0  0  0  0  0  0
   -5.8535    0.6395   -0.9807 C   0  0  0  0  0  0  0  0  0  0  0  0
   -6.2427   -0.0287   -2.1055 F   0  0  0  0  0  0  0  0  0  0  0  0
   -2.3424   -1.2002    0.7072 C   0  0  0  0  0  0  0  0  0  0  0  0
   -3.3372   -1.4418    1.4508 O   0  0  0  0  0  0  0  0  0  0  0  0
   -1.1362   -1.4402    1.2080 N   0  0  0  0  0  0  0  0  0  0  0  0
   -0.8920   -1.9552    2.5363 C   0  0  0  0  0  0  0  0  0  0  0  0
   -0.0504   -1.1929    0.4396 C   0  0  0  0  0  0  0  0  0  0  0  0
    1.1898   -1.4272    0.9215 N   0  0  0  0  0  0  0  0  0  0  0  0
  1  2  1  0
  2  3  1  0
  3  4  1  0
  4  5  2  0
  4  6  1  0
  6  7  1  6
  7  8  1  0
  8  9  2  0
  9 10  1  0
 10 11  1  0
 11 12  2  0
  6 13  1  0
 13 14  1  0
 14 15  2  0
 14 16  1  0
 16 17  1  0
 19 18  1  1
 19 20  1  0
 20 21  1  0
 21 22  1  0
 22 23  2  0
 23 24  1  0
 24 25  2  0
 19 26  1  0
 26 27  1  0
 27 28  2  0
 28 29  1  0
 29 30  2  0
 30 31  1  0
 31 32  2  0
 32 33  1  0
 33 34  1  0
 34 35  2  0
 35 36  1  0
 36 37  2  0
 37 38  1  0
 37 39  1  0
 39 40  2  0
 40 41  1  0
 32 42  1  0
 42 43  2  0
 42 44  1  0
 44 45  1  0
 44 46  1  0
 46 47  2  0
 12  8  1  0
 25 21  1  0
 47 27  1  0
 46 30  1  0
 40 34  1  0
M  END

