
     RDKit          3D

 50 52  0  0  0  0  0  0  0  0999 V2000
   -5.7188    2.8107   -0.9790 C   0  0  0  0  0  0  0  0  0  0  0  0
   -4.8275    1.4840   -1.4294 C   0  0  1  0  0  0  0  0  0  0  0  0
   -3.9076    2.3285   -2.2965 O   0  0  0  0  0  0  0  0  0  0  0  0
   -3.8514    1.5989   -0.1226 C   0  0  0  0  0  0  0  0  0  0  0  0
   -2.8818    0.4622   -0.2584 C   0  0  0  0  0  0  0  0  0  0  0  0
   -2.9463   -0.3496   -1.2179 O   0  0  0  0  0  0  0  0  0  0  0  0
   -1.8430    0.2186    0.6601 N   0  0  0  0  0  0  0  0  0  0  0  0
   -0.8785   -0.9717    0.4606 C   0  0  1  0  0  0  0  0  0  0  0  0
   -0.7705   -0.8409   -1.1560 C   0  0  0  0  0  0  0  0  0  0  0  0
    0.1247   -1.9613   -1.4934 C   0  0  0  0  0  0  0  0  0  0  0  0
    0.5156   -2.1658   -2.8238 O   0  0  0  0  0  1  0  0  0  0  0  0
    0.5892   -2.7831   -0.6731 O   0  0  0  0  0  0  0  0  0  0  0  0
    0.4796   -0.2453    0.7773 C   0  0  0  0  0  0  0  0  0  0  0  0
    0.3790    0.9593    1.0576 O   0  0  0  0  0  0  0  0  0  0  0  0
    1.7015   -0.8726    0.7526 N   0  0  0  0  0  0  0  0  0  0  0  0
    2.8664   -0.0611    1.0691 C   0  0  0  0  0  0  0  0  0  0  0  0
    4.1442   -0.7957    1.0108 C   0  0  0  0  0  0  0  0  0  0  0  0
    5.2499    0.1279    1.3531 C   0  0  0  0  0  0  0  0  0  0  0  0
    6.5794   -0.2604    1.3798 O   0  0  0  0  0  1  0  0  0  0  0  0
    4.9959    1.3174    1.6347 O   0  0  0  0  0  0  0  0  0  0  0  0
   -3.6676    1.5092    1.3605 C   0  0  0  0  0  0  0  0  0  0  0  0
   -4.3556    0.8701    0.0037 C   0  0  2  0  0  0  0  0  0  0  0  0
   -5.7196    0.4015    0.8042 C   0  0  0  0  0  0  0  0  0  0  0  0
   -6.4629   -0.2021   -0.2818 N   0  0  0  0  0  0  0  0  0  0  0  0
   -7.3241    0.3449   -1.1187 N   0  0  0  0  0  0  0  0  0  0  0  0
   -7.7560   -0.6111   -1.9545 C   0  0  0  0  0  0  0  0  0  0  0  0
   -7.1404   -1.7484   -1.6086 N   0  0  0  0  0  0  0  0  0  0  0  0
   -6.3633   -1.4750   -0.5941 N   0  0  0  0  0  0  0  0  0  0  0  0
   -3.6484   -0.5262    0.1980 N   0  0  0  0  0  0  0  0  0  0  0  0
   -2.2247   -0.4188    0.1913 C   0  0  0  0  0  0  0  0  0  0  0  0
   -1.5276   -1.5346    0.3474 N   0  0  0  0  0  0  0  0  0  0  0  0
   -0.1823   -1.4760    0.3469 C   0  0  0  0  0  0  0  0  0  0  0  0
    0.5023   -0.3105    0.1918 C   0  0  0  0  0  0  0  0  0  0  0  0
    1.8902   -0.2030    0.1848 C   0  0  0  0  0  0  0  0  0  0  0  0
    2.5127    1.0176    0.0219 C   0  0  0  0  0  0  0  0  0  0  0  0
    3.8867    1.1917    0.0058 O   0  0  0  0  0  0  0  0  0  0  0  0
    4.7968    0.1777    0.1492 C   0  0  0  0  0  0  0  0  0  0  0  0
    5.7269    0.1258    1.1647 C   0  0  0  0  0  0  0  0  0  0  0  0
    6.6438   -0.8879    1.3160 C   0  0  0  0  0  0  0  0  0  0  0  0
    6.6249   -1.9131    0.3892 C   0  0  0  0  0  0  0  0  0  0  0  0
    7.4873   -2.9654    0.4443 F   0  0  0  0  0  0  0  0  0  0  0  0
    5.6950   -1.8648   -0.6294 C   0  0  0  0  0  0  0  0  0  0  0  0
    4.7800   -0.8451   -0.7732 C   0  0  0  0  0  0  0  0  0  0  0  0
    3.9012   -0.8817   -1.8085 F   0  0  0  0  0  0  0  0  0  0  0  0
    1.7048    2.1234   -0.1334 C   0  0  0  0  0  0  0  0  0  0  0  0
    2.1490    3.2921   -0.2903 O   0  0  0  0  0  0  0  0  0  0  0  0
    0.3423    2.0271   -0.1279 N   0  0  0  0  0  0  0  0  0  0  0  0
   -0.4955    3.2123   -0.2941 C   0  0  0  0  0  0  0  0  0  0  0  0
   -0.2195    0.8365    0.0313 C   0  0  0  0  0  0  0  0  0  0  0  0
   -1.5566    0.7338    0.0379 N   0  0  0  0  0  0  0  0  0  0  0  0
  2  1  1  1
  2  3  1  0
  2  4  1  0
  4  5  1  0
  5  6  2  0
  5  7  1  0
  7  8  1  0
  8  9  1  6
  9 10  1  0
 10 11  1  0
 10 12  2  0
  8 13  1  0
 13 14  2  0
 13 15  1  0
 15 16  1  0
 16 17  1  0
 17 18  1  0
 18 19  1  0
 18 20  2  0
 22 21  1  1
 22 23  1  0
 23 24  1  0
 24 25  1  0
 25 26  2  0
 26 27  1  0
 27 28  2  0
 22 29  1  0
 29 30  1  0
 30 31  2  0
 31 32  1  0
 32 33  2  0
 33 34  1  0
 34 35  2  0
 35 36  1  0
 36 37  1  0
 37 38  2  0
 38 39  1  0
 39 40  2  0
 40 41  1  0
 40 42  1  0
 42 43  2  0
 43 44  1  0
 35 45  1  0
 45 46  2  0
 45 47  1  0
 47 48  1  0
 47 49  1  0
 49 50  2  0
 28 24  1  0
 50 30  1  0
 49 33  1  0
 43 37  1  0
M  RAD  2  11   2  19   2
M  END

