
     RDKit          3D

 54 56  0  0  0  0  0  0  0  0999 V2000
   -6.9880    1.4890    1.1570 C   0  0  0  0  0  0  0  0  0  0  0  0
   -5.7478    0.7576    0.7284 C   0  0  0  0  0  0  0  0  0  0  0  0
   -4.8211    1.5321   -0.1417 C   0  0  0  0  0  0  0  0  0  0  0  0
   -5.0414    0.0746    1.8592 C   0  0  0  0  0  0  0  0  0  0  0  0
   -3.8358   -0.6205    1.3725 C   0  0  0  0  0  0  0  0  0  0  0  0
   -2.8633    0.2956    0.7470 N   0  0  0  0  0  0  0  0  0  0  0  0
   -1.6402   -0.1827    0.2439 C   0  0  0  0  0  0  0  0  0  0  0  0
   -1.3955   -1.3801    0.3337 O   0  0  0  0  0  0  0  0  0  0  0  0
   -0.7184    0.8880   -0.3819 C   0  0  2  0  0  0  0  0  0  0  0  0
   -1.3879    1.0503   -1.8046 C   0  0  0  0  0  0  0  0  0  0  0  0
   -1.4197   -0.1185   -2.6287 C   0  0  0  0  0  0  0  0  0  0  0  0
   -2.1261   -1.3325   -2.2131 C   0  0  0  0  0  0  0  0  0  0  0  0
   -1.5810    0.1639   -4.0833 C   0  0  0  0  0  0  0  0  0  0  0  0
    0.4403   -0.0624   -0.8308 N   0  0  0  0  0  0  0  0  0  0  0  0
    1.2054   -0.6252    0.2099 C   0  0  0  0  0  0  0  0  0  0  0  0
    0.8491   -0.2733    1.3911 O   0  0  0  0  0  0  0  0  0  0  0  0
    2.3537   -1.5654    0.0228 C   0  0  0  0  0  0  0  0  0  0  0  0
    2.9241   -1.7931    1.4430 C   0  0  0  0  0  0  0  0  0  0  0  0
    3.3661   -0.3770    1.8950 C   0  0  0  0  0  0  0  0  0  0  0  0
    4.3962   -0.0306    0.8962 C   0  0  0  0  0  0  0  0  0  0  0  0
    5.0243    1.2124    0.9551 N   0  0  0  0  0  0  0  0  0  0  0  0
    6.0066    1.4620   -0.0581 C   0  0  0  0  0  0  0  0  0  0  0  0
    6.7406    2.6568   -0.1532 N   0  0  0  0  0  0  0  0  0  0  0  0
    6.2596    0.5409   -0.9594 N   0  0  0  0  0  4  0  0  0  0  0  0
    2.7248    2.3486    2.1483 C   0  0  0  0  0  0  0  0  0  0  0  0
    4.1256    1.5934    1.8108 C   0  0  2  0  0  0  0  0  0  0  0  0
    3.7227    1.3142    0.2726 C   0  0  0  0  0  0  0  0  0  0  0  0
    4.8412    0.6087   -0.3343 N   0  0  0  0  0  0  0  0  0  0  0  0
    4.9781   -0.6871   -0.3612 N   0  0  0  0  0  0  0  0  0  0  0  0
    6.1044   -1.0286   -0.9868 C   0  0  0  0  0  0  0  0  0  0  0  0
    6.7052    0.1074   -1.3723 N   0  0  0  0  0  0  0  0  0  0  0  0
    5.9001    1.0597   -0.9528 N   0  0  0  0  0  0  0  0  0  0  0  0
    3.6934    0.2479    2.4280 N   0  0  0  0  0  0  0  0  0  0  0  0
    2.5018   -0.2993    1.9199 C   0  0  0  0  0  0  0  0  0  0  0  0
    1.9741   -1.4727    2.3398 N   0  0  0  0  0  0  0  0  0  0  0  0
    0.8465   -2.0084    1.8790 C   0  0  0  0  0  0  0  0  0  0  0  0
    0.1652   -1.3103    0.8969 C   0  0  0  0  0  0  0  0  0  0  0  0
   -1.0203   -1.7799    0.3480 C   0  0  0  0  0  0  0  0  0  0  0  0
   -1.7034   -1.0902   -0.6296 C   0  0  0  0  0  0  0  0  0  0  0  0
   -2.8847   -1.5255   -1.1991 O   0  0  0  0  0  0  0  0  0  0  0  0
   -4.0347   -0.7816   -1.1183 C   0  0  0  0  0  0  0  0  0  0  0  0
   -4.7208   -0.3060   -2.2248 C   0  0  0  0  0  0  0  0  0  0  0  0
   -5.8757    0.4403   -2.1167 C   0  0  0  0  0  0  0  0  0  0  0  0
   -6.3894    0.7394   -0.8776 C   0  0  0  0  0  0  0  0  0  0  0  0
   -7.5375    1.4816   -0.7838 F   0  0  0  0  0  0  0  0  0  0  0  0
   -5.7368    0.2853    0.2342 C   0  0  0  0  0  0  0  0  0  0  0  0
   -4.5715   -0.4674    0.1129 C   0  0  0  0  0  0  0  0  0  0  0  0
   -3.9110   -0.9261    1.2094 F   0  0  0  0  0  0  0  0  0  0  0  0
   -1.1544    0.1015   -1.0464 C   0  0  0  0  0  0  0  0  0  0  0  0
   -1.7487    0.7672   -1.9422 O   0  0  0  0  0  0  0  0  0  0  0  0
   -0.0103    0.5477   -0.5118 N   0  0  0  0  0  0  0  0  0  0  0  0
    0.5625    1.8195   -0.9663 C   0  0  0  0  0  0  0  0  0  0  0  0
    0.6547   -0.1111    0.4312 C   0  0  0  0  0  0  0  0  0  0  0  0
    1.7986    0.3316    0.9680 N   0  0  0  0  0  0  0  0  0  0  0  0
  1  2  1  0
  2  3  1  0
  2  4  1  0
  4  5  1  0
  5  6  1  0
  6  7  1  0
  7  8  2  0
  7  9  1  0
  9 10  1  6
 10 11  1  0
 11 12  1  0
 11 13  1  0
  9 14  1  0
 14 15  1  0
 15 16  2  0
 15 17  1  0
 17 18  1  0
 18 19  1  0
 19 20  1  0
 20 21  1  0
 21 22  1  0
 22 23  1  0
 22 24  2  0
 26 25  1  1
 26 27  1  0
 27 28  1  0
 28 29  1  0
 29 30  2  0
 30 31  1  0
 31 32  2  0
 26 33  1  0
 33 34  1  0
 34 35  2  0
 35 36  1  0
 36 37  2  0
 37 38  1  0
 38 39  2  0
 39 40  1  0
 40 41  1  0
 41 42  2  0
 42 43  1  0
 43 44  2  0
 44 45  1  0
 44 46  1  0
 46 47  2  0
 47 48  1  0
 39 49  1  0
 49 50  2  0
 49 51  1  0
 51 52  1  0
 51 53  1  0
 53 54  2  0
 32 28  1  0
 54 34  1  0
 53 37  1  0
 47 41  1  0
M  CHG  1  24   1
M  END

