
     RDKit          3D

 57 61  0  0  0  0  0  0  0  0999 V2000
    6.8093    2.2838    0.0533 C   0  0  0  0  0  0  0  0  0  0  0  0
    5.7075    1.1118   -0.7618 S   0  0  0  0  0  0  0  0  0  0  0  0
    5.4872   -0.3866    0.2300 C   0  0  0  0  0  0  0  0  0  0  0  0
    4.7652   -0.0250    1.4918 C   0  0  0  0  0  0  0  0  0  0  0  0
    3.4084    0.5814    1.2829 C   0  0  0  0  0  0  0  0  0  0  0  0
    2.5106   -0.3589    0.5361 C   0  0  0  0  0  0  0  0  0  0  0  0
    2.9976   -1.4562    0.1715 O   0  0  0  0  0  0  0  0  0  0  0  0
    1.1599   -0.0435    0.2388 N   0  0  0  0  0  0  0  0  0  0  0  0
    0.4640   -1.2134   -0.5624 C   0  0  1  0  0  0  0  0  0  0  0  0
   -0.7459   -1.3938    0.5754 C   0  0  0  0  0  0  0  0  0  0  0  0
   -0.0207   -1.7396    1.8251 C   0  0  0  0  0  0  0  0  0  0  0  0
    0.4207   -0.7425    2.6981 C   0  0  0  0  0  0  0  0  0  0  0  0
    1.0233   -1.4303    3.7009 N   0  0  0  0  0  0  0  0  0  0  0  0
    0.9553   -2.7429    3.4602 C   0  0  0  0  0  0  0  0  0  0  0  0
    0.3133   -2.9289    2.3071 N   0  0  0  0  0  0  0  0  0  0  0  0
   -0.4304   -0.2707   -1.5003 C   0  0  0  0  0  0  0  0  0  0  0  0
   -0.7739    0.7731   -0.9972 O   0  0  0  0  0  0  0  0  0  0  0  0
   -0.7371   -0.6929   -2.7703 N   0  0  0  0  0  0  0  0  0  0  0  0
   -1.5223    0.0458   -3.6748 C   0  0  0  0  0  0  0  0  0  0  0  0
   -2.8919    0.2949   -3.3784 C   0  0  0  0  0  0  0  0  0  0  0  0
   -3.3995    0.9690   -2.2182 C   0  0  0  0  0  0  0  0  0  0  0  0
   -3.5343    2.3209   -2.0463 C   0  0  0  0  0  0  0  0  0  0  0  0
   -4.0872    2.8117   -0.8964 C   0  0  0  0  0  0  0  0  0  0  0  0
   -4.5295    1.9813    0.1301 C   0  0  0  0  0  0  0  0  0  0  0  0
   -5.0948    2.4939    1.3013 O   0  0  0  0  0  0  0  0  0  0  0  0
   -4.4036    0.6208   -0.0237 C   0  0  0  0  0  0  0  0  0  0  0  0
   -3.8514    0.1544   -1.1728 C   0  0  0  0  0  0  0  0  0  0  0  0
    5.6593    1.2718    1.5215 C   0  0  0  0  0  0  0  0  0  0  0  0
    4.1696    0.6508    1.1401 C   0  0  2  0  0  0  0  0  0  0  0  0
    4.6566    0.1875   -0.3744 C   0  0  0  0  0  0  0  0  0  0  0  0
    5.7353   -0.7360   -0.1552 N   0  0  0  0  0  0  0  0  0  0  0  0
    6.9962   -0.3647   -0.0691 N   0  0  0  0  0  0  0  0  0  0  0  0
    7.7924   -1.4444    0.1394 C   0  0  0  0  0  0  0  0  0  0  0  0
    6.9555   -2.5005    0.1773 N   0  0  0  0  0  0  0  0  0  0  0  0
    5.7226   -2.0428   -0.0031 N   0  0  0  0  0  0  0  0  0  0  0  0
    3.6444    2.0308    0.6445 N   0  0  0  0  0  0  0  0  0  0  0  0
    2.2811    1.9016    0.1962 C   0  0  0  0  0  0  0  0  0  0  0  0
    1.6278    2.9917   -0.2788 N   0  0  0  0  0  0  0  0  0  0  0  0
    0.3615    2.8710   -0.6950 C   0  0  0  0  0  0  0  0  0  0  0  0
   -0.3321    1.6784   -0.6685 C   0  0  0  0  0  0  0  0  0  0  0  0
   -1.6432    1.5440   -1.0972 C   0  0  0  0  0  0  0  0  0  0  0  0
   -2.2544    0.3140   -1.0334 C   0  0  0  0  0  0  0  0  0  0  0  0
   -3.5523    0.2324   -1.4698 O   0  0  0  0  0  0  0  0  0  0  0  0
   -4.4886   -0.1772   -0.5118 C   0  0  0  0  0  0  0  0  0  0  0  0
   -4.1349   -0.4728    0.7869 C   0  0  0  0  0  0  0  0  0  0  0  0
   -5.0865   -0.8715    1.6956 C   0  0  0  0  0  0  0  0  0  0  0  0
   -6.4212   -0.9970    1.3711 C   0  0  0  0  0  0  0  0  0  0  0  0
   -7.3407   -1.3924    2.2867 F   0  0  0  0  0  0  0  0  0  0  0  0
   -6.7435   -0.6941    0.0642 C   0  0  0  0  0  0  0  0  0  0  0  0
   -5.8159   -0.2968   -0.8535 C   0  0  0  0  0  0  0  0  0  0  0  0
   -6.1278    0.0048   -2.1495 F   0  0  0  0  0  0  0  0  0  0  0  0
   -1.5757   -0.7700   -0.5511 C   0  0  0  0  0  0  0  0  0  0  0  0
   -2.1653   -1.8762   -0.5084 O   0  0  0  0  0  0  0  0  0  0  0  0
   -0.3023   -0.6212   -0.1387 N   0  0  0  0  0  0  0  0  0  0  0  0
    0.4465   -1.7415    0.3765 C   0  0  0  0  0  0  0  0  0  0  0  0
    0.3354    0.5706   -0.1845 C   0  0  0  0  0  0  0  0  0  0  0  0
    1.6003    0.7496    0.2180 N   0  0  0  0  0  0  0  0  0  0  0  0
  1  2  1  0
  2  3  1  0
  3  4  1  0
  4  5  1  0
  5  6  1  0
  6  7  2  0
  6  8  1  0
  8  9  1  0
  9 10  1  1
 10 11  1  0
 11 12  2  0
 12 13  1  0
 13 14  1  0
 14 15  2  0
  9 16  1  0
 16 17  2  0
 16 18  1  0
 18 19  1  0
 19 20  1  0
 20 21  1  0
 21 22  2  0
 22 23  1  0
 23 24  2  0
 24 25  1  0
 24 26  1  0
 26 27  2  0
 29 28  1  1
 29 30  1  0
 30 31  1  0
 31 32  1  0
 32 33  2  0
 33 34  1  0
 34 35  2  0
 29 36  1  0
 36 37  1  0
 37 38  2  0
 38 39  1  0
 39 40  2  0
 40 41  1  0
 41 42  2  0
 42 43  1  0
 43 44  1  0
 44 45  2  0
 45 46  1  0
 46 47  2  0
 47 48  1  0
 47 49  1  0
 49 50  2  0
 50 51  1  0
 42 52  1  0
 52 53  2  0
 52 54  1  0
 54 55  1  0
 54 56  1  0
 56 57  2  0
 15 11  1  0
 27 21  1  0
 35 31  1  0
 57 37  1  0
 56 40  1  0
 50 44  1  0
M  END

