
     RDKit          3D

 53 56  0  0  0  0  0  0  0  0999 V2000
   -0.5447    4.3858   -0.5325 C   0  0  0  0  0  0  0  0  0  0  0  0
   -1.0463    3.6330   -1.7126 C   0  0  0  0  0  0  0  0  0  0  0  0
   -2.0249    2.4528   -1.2480 C   0  0  2  0  0  0  0  0  0  0  0  0
   -3.1167    3.3960   -0.5064 C   0  0  0  0  0  0  0  0  0  0  0  0
   -1.1466    2.1372    0.2140 C   0  0  2  0  0  0  0  0  0  0  0  0
    0.1670    1.7530   -0.4242 N   0  0  0  0  0  0  0  0  0  0  0  0
    0.9331    0.7460    0.1332 C   0  0  0  0  0  0  0  0  0  0  0  0
    0.6456    0.1507    1.1770 O   0  0  0  0  0  0  0  0  0  0  0  0
    2.2718    0.2948   -0.5256 C   0  0  0  0  0  0  0  0  0  0  0  0
    2.9853   -0.5245    0.5438 C   0  0  0  0  0  0  0  0  0  0  0  0
    4.2750   -1.0056    0.0757 C   0  0  0  0  0  0  0  0  0  0  0  0
    5.5061   -0.3900    0.0695 C   0  0  0  0  0  0  0  0  0  0  0  0
    6.4612   -1.2025   -0.4881 N   0  0  0  0  0  0  0  0  0  0  0  0
    5.7957   -2.3611   -0.8445 C   0  0  0  0  0  0  0  0  0  0  0  0
    4.4829   -2.2180   -0.5018 N   0  0  0  0  0  0  0  0  0  0  0  0
   -1.7051    0.6339    0.4047 C   0  0  0  0  0  0  0  0  0  0  0  0
   -1.8050    0.2475    1.5517 O   0  0  0  0  0  0  0  0  0  0  0  0
   -2.0315   -0.0958   -0.7474 N   0  0  0  0  0  0  0  0  0  0  0  0
   -2.4869   -1.4519   -0.6175 C   0  0  0  0  0  0  0  0  0  0  0  0
   -3.7738   -1.3421    0.1555 C   0  0  0  0  0  0  0  0  0  0  0  0
   -4.4085   -2.6682    0.3057 C   0  0  0  0  0  0  0  0  0  0  0  0
   -5.3508   -3.1644   -0.6108 O   0  0  0  0  0  1  0  0  0  0  0  0
   -4.0830   -3.4069    1.2896 O   0  0  0  0  0  0  0  0  0  0  0  0
    4.2993    0.4763   -2.6419 C   0  0  0  0  0  0  0  0  0  0  0  0
    4.9823    0.6722   -1.1420 C   0  0  2  0  0  0  0  0  0  0  0  0
    4.2781   -0.6881   -0.5216 C   0  0  0  0  0  0  0  0  0  0  0  0
    4.7847   -0.6855    0.8580 N   0  0  0  0  0  0  0  0  0  0  0  0
    5.8843   -1.2444    1.3240 N   0  0  0  0  0  0  0  0  0  0  0  0
    5.9471   -0.9872    2.6460 C   0  0  0  0  0  0  0  0  0  0  0  0
    4.8648   -0.2572    2.9934 N   0  0  0  0  0  0  0  0  0  0  0  0
    4.1894   -0.1036    1.8572 N   0  0  0  0  0  0  0  0  0  0  0  0
    3.8791    1.6445   -0.5880 N   0  0  0  0  0  0  0  0  0  0  0  0
    2.5574    1.2613   -0.5472 C   0  0  0  0  0  0  0  0  0  0  0  0
    1.6549    2.1300   -0.0645 N   0  0  0  0  0  0  0  0  0  0  0  0
    0.3517    1.8864    0.0297 C   0  0  0  0  0  0  0  0  0  0  0  0
   -0.1451    0.6881   -0.3792 C   0  0  0  0  0  0  0  0  0  0  0  0
   -1.4962    0.3966   -0.2972 C   0  0  0  0  0  0  0  0  0  0  0  0
   -1.9344   -0.8338   -0.7277 C   0  0  0  0  0  0  0  0  0  0  0  0
   -3.2591   -1.2114   -0.6842 O   0  0  0  0  0  0  0  0  0  0  0  0
   -4.2736   -0.3896   -0.2038 C   0  0  0  0  0  0  0  0  0  0  0  0
   -4.9977   -0.8577    0.8763 C   0  0  0  0  0  0  0  0  0  0  0  0
   -6.0111   -0.0701    1.3796 C   0  0  0  0  0  0  0  0  0  0  0  0
   -6.3047    1.1699    0.8182 C   0  0  0  0  0  0  0  0  0  0  0  0
   -7.3117    1.9009    1.3543 F   0  0  0  0  0  0  0  0  0  0  0  0
   -5.5594    1.5874   -0.2486 C   0  0  0  0  0  0  0  0  0  0  0  0
   -4.5403    0.8334   -0.7813 C   0  0  0  0  0  0  0  0  0  0  0  0
   -3.8181    1.2669   -1.8353 F   0  0  0  0  0  0  0  0  0  0  0  0
   -1.0123   -1.7096   -1.2162 C   0  0  0  0  0  0  0  0  0  0  0  0
   -1.3957   -2.8409   -1.6149 O   0  0  0  0  0  0  0  0  0  0  0  0
    0.3065   -1.4289   -1.2977 N   0  0  0  0  0  0  0  0  0  0  0  0
    1.2198   -2.4349   -1.8373 C   0  0  0  0  0  0  0  0  0  0  0  0
    0.7740   -0.2350   -0.8863 C   0  0  0  0  0  0  0  0  0  0  0  0
    2.0859    0.0641   -0.9595 N   0  0  0  0  0  0  0  0  0  0  0  0
  1  2  1  0
  2  3  1  0
  3  4  1  1
  3  5  1  0
  5  6  1  6
  6  7  1  0
  7  8  2  0
  7  9  1  0
  9 10  1  0
 10 11  1  0
 11 12  2  0
 12 13  1  0
 13 14  1  0
 14 15  2  0
  5 16  1  0
 16 17  2  0
 16 18  1  0
 18 19  1  0
 19 20  1  0
 20 21  1  0
 21 22  1  0
 21 23  2  0
 25 24  1  6
 25 26  1  0
 26 27  1  0
 27 28  1  0
 28 29  2  0
 29 30  1  0
 30 31  2  0
 25 32  1  0
 32 33  1  0
 33 34  2  0
 34 35  1  0
 35 36  2  0
 36 37  1  0
 37 38  2  0
 38 39  1  0
 39 40  1  0
 40 41  2  0
 41 42  1  0
 42 43  2  0
 43 44  1  0
 43 45  1  0
 45 46  2  0
 46 47  1  0
 38 48  1  0
 48 49  2  0
 48 50  1  0
 50 51  1  0
 50 52  1  0
 52 53  2  0
 15 11  1  0
 31 27  1  0
 53 33  1  0
 52 36  1  0
 46 40  1  0
M  RAD  1  22   2
M  END

