
     RDKit          3D

 56 59  0  0  0  0  0  0  0  0999 V2000
   -5.5943    1.7289    1.4036 C   0  0  0  0  0  0  0  0  0  0  0  0
   -4.5029    1.3645    0.1846 C   0  0  2  0  0  0  0  0  0  0  0  0
   -5.0055   -0.2210    0.0239 C   0  0  0  0  0  0  0  0  0  0  0  0
   -6.3673   -0.2074   -0.3291 N   0  0  0  0  0  0  0  0  0  0  0  0
   -7.3595   -0.2209    0.5643 N   0  0  0  0  0  0  0  0  0  0  0  0
   -8.5445   -0.2032   -0.0298 C   0  0  0  0  0  0  0  0  0  0  0  0
   -8.2837   -0.1773   -1.3621 N   0  0  0  0  0  0  0  0  0  0  0  0
   -6.9530   -0.1806   -1.5080 N   0  0  0  0  0  0  0  0  0  0  0  0
   -3.3794    0.9650    1.2211 N   0  0  0  0  0  0  0  0  0  0  0  0
   -2.1508    0.5469    0.5832 C   0  0  0  0  0  0  0  0  0  0  0  0
   -2.0142    0.5138   -0.7506 N   0  0  0  0  0  0  0  0  0  0  0  0
   -0.9060    0.1375   -1.4019 C   0  0  0  0  0  0  0  0  0  0  0  0
    0.1797   -0.2461   -0.6300 C   0  0  0  0  0  0  0  0  0  0  0  0
    1.3711   -0.6523   -1.1816 C   0  0  0  0  0  0  0  0  0  0  0  0
    2.3840   -1.0116   -0.3245 C   0  0  0  0  0  0  0  0  0  0  0  0
    3.5798   -1.4190   -0.8982 O   0  0  0  0  0  0  0  0  0  0  0  0
    4.7103   -0.6833   -0.5864 C   0  0  0  0  0  0  0  0  0  0  0  0
    5.7603   -1.3174    0.0305 C   0  0  0  0  0  0  0  0  0  0  0  0
    6.9183   -0.6477    0.3707 C   0  0  0  0  0  0  0  0  0  0  0  0
    6.9977    0.7086    0.0685 C   0  0  0  0  0  0  0  0  0  0  0  0
    8.1303    1.3727    0.3990 F   0  0  0  0  0  0  0  0  0  0  0  0
    5.9636    1.3842   -0.5517 C   0  0  0  0  0  0  0  0  0  0  0  0
    4.8222    0.6566   -0.8703 C   0  0  0  0  0  0  0  0  0  0  0  0
    3.8034    1.2805   -1.4710 F   0  0  0  0  0  0  0  0  0  0  0  0
    2.2488   -0.9794    1.0442 C   0  0  0  0  0  0  0  0  0  0  0  0
    3.2357   -1.3282    1.7582 O   0  0  0  0  0  0  0  0  0  0  0  0
    1.0842   -0.5823    1.5760 N   0  0  0  0  0  0  0  0  0  0  0  0
    0.9090   -0.5371    3.0237 C   0  0  0  0  0  0  0  0  0  0  0  0
    0.0601   -0.2193    0.7400 C   0  0  0  0  0  0  0  0  0  0  0  0
   -1.0977    0.1749    1.3183 N   0  0  0  0  0  0  0  0  0  0  0  0
   -7.0953   -0.1350   -0.7654 N   0  0  0  0  0  0  0  0  0  0  0  0
   -6.0893   -0.9468   -0.1416 C   0  0  0  0  0  0  0  0  0  0  0  0
   -5.9288   -0.9293    1.0996 O   0  0  0  0  0  0  0  0  0  0  0  0
   -5.2611   -1.8013   -1.0678 C   0  0  0  0  0  0  0  0  0  0  0  0
   -4.4292   -2.7278   -0.2154 C   0  0  0  0  0  0  0  0  0  0  0  0
   -3.5515   -1.9661    0.6396 N   0  0  0  0  0  0  0  0  0  0  0  0
   -2.5739   -1.1189    0.0936 C   0  0  0  0  0  0  0  0  0  0  0  0
   -2.3965   -0.9647   -1.0859 O   0  0  0  0  0  0  0  0  0  0  0  0
   -1.6842   -0.3536    1.1817 C   0  0  2  0  0  0  0  0  0  0  0  0
   -2.1098    1.1832    0.7397 C   0  0  0  0  0  0  0  0  0  0  0  0
   -1.7181    1.3654   -0.6772 C   0  0  0  0  0  0  0  0  0  0  0  0
   -2.0771    2.7316   -1.1044 C   0  0  0  0  0  0  0  0  0  0  0  0
   -1.8961    3.1815   -2.4605 N   0  0  0  0  0  0  0  0  0  0  0  0
   -2.5599    3.5864   -0.3172 O   0  0  0  0  0  0  0  0  0  0  0  0
   -0.3641   -0.3674    0.3095 N   0  0  0  0  0  0  0  0  0  0  0  0
    0.8166   -0.1787    1.0653 C   0  0  0  0  0  0  0  0  0  0  0  0
    0.8136   -0.0130    2.2922 O   0  0  0  0  0  0  0  0  0  0  0  0
    2.1168   -0.1839    0.3485 C   0  0  0  0  0  0  0  0  0  0  0  0
    3.2815   -0.0862    1.3323 C   0  0  0  0  0  0  0  0  0  0  0  0
    4.5671   -0.0933    0.6011 C   0  0  0  0  0  0  0  0  0  0  0  0
    5.1214    1.0947    0.2227 C   0  0  0  0  0  0  0  0  0  0  0  0
    6.3117    1.1638   -0.4627 C   0  0  0  0  0  0  0  0  0  0  0  0
    6.9362   -0.0160   -0.7613 C   0  0  0  0  0  0  0  0  0  0  0  0
    8.1480    0.0730   -1.4616 O   0  0  0  0  0  0  0  0  0  0  0  0
    6.4035   -1.2109   -0.3951 C   0  0  0  0  0  0  0  0  0  0  0  0
    5.2185   -1.2869    0.2877 C   0  0  0  0  0  0  0  0  0  0  0  0
  2  1  1  1
  2  3  1  0
  3  4  1  0
  4  5  1  0
  5  6  2  0
  6  7  1  0
  7  8  2  0
  2  9  1  0
  9 10  1  0
 10 11  2  0
 11 12  1  0
 12 13  2  0
 13 14  1  0
 14 15  2  0
 15 16  1  0
 16 17  1  0
 17 18  2  0
 18 19  1  0
 19 20  2  0
 20 21  1  0
 20 22  1  0
 22 23  2  0
 23 24  1  0
 15 25  1  0
 25 26  2  0
 25 27  1  0
 27 28  1  0
 27 29  1  0
 29 30  2  0
 31 32  1  0
 32 33  2  0
 32 34  1  0
 34 35  1  0
 35 36  1  0
 36 37  1  0
 37 38  2  0
 37 39  1  0
 39 40  1  6
 40 41  1  0
 41 42  1  0
 42 43  1  0
 42 44  2  0
 39 45  1  0
 45 46  1  0
 46 47  2  0
 46 48  1  0
 48 49  1  0
 49 50  1  0
 50 51  2  0
 51 52  1  0
 52 53  2  0
 53 54  1  0
 53 55  1  0
 55 56  2  0
  8  4  1  0
 30 10  1  0
 56 50  1  0
 29 13  1  0
 23 17  1  0
M  END

