
     RDKit          3D

 50 52  0  0  0  0  0  0  0  0999 V2000
    5.2846    1.7791   -0.9706 C   0  0  0  0  0  0  0  0  0  0  0  0
    5.1278    0.3261   -0.6717 C   0  0  0  0  0  0  0  0  0  0  0  0
    6.2693   -0.2687    0.1067 C   0  0  0  0  0  0  0  0  0  0  0  0
    3.7872   -0.1270   -0.3099 C   0  0  0  0  0  0  0  0  0  0  0  0
    3.1723    0.4860    0.9078 C   0  0  0  0  0  0  0  0  0  0  0  0
    1.8433   -0.1036    1.0950 N   0  0  0  0  0  0  0  0  0  0  0  0
    0.8213    0.0152    0.1149 C   0  0  0  0  0  0  0  0  0  0  0  0
    0.9863    0.6052   -0.9209 O   0  0  0  0  0  0  0  0  0  0  0  0
   -0.5317   -0.7038    0.5366 C   0  0  2  0  0  0  0  0  0  0  0  0
   -0.1093   -2.1729   -0.1829 C   0  0  0  0  0  0  0  0  0  0  0  0
   -1.3230   -2.9596    0.1288 C   0  0  0  0  0  0  0  0  0  0  0  0
   -1.3340   -3.8848    1.1462 O   0  0  0  0  0  1  0  0  0  0  0  0
   -2.3568   -2.7737   -0.5502 O   0  0  0  0  0  0  0  0  0  0  0  0
   -1.3708   -0.2658   -0.7279 N   0  0  0  0  0  0  0  0  0  0  0  0
   -2.3706    0.6838   -0.3775 C   0  0  0  0  0  0  0  0  0  0  0  0
   -2.4908    1.0645    0.8212 O   0  0  0  0  0  0  0  0  0  0  0  0
   -3.2617    1.2068   -1.4709 C   0  0  0  0  0  0  0  0  0  0  0  0
   -4.1258    2.2807   -0.8057 C   0  0  0  0  0  0  0  0  0  0  0  0
   -4.8881    1.5708    0.3049 C   0  0  0  0  0  0  0  0  0  0  0  0
   -3.1296    3.2418   -0.1637 C   0  0  0  0  0  0  0  0  0  0  0  0
   -3.5119    1.4043    0.7170 C   0  0  0  0  0  0  0  0  0  0  0  0
   -4.4715    1.0389   -0.5846 C   0  0  2  0  0  0  0  0  0  0  0  0
   -5.8414    0.8788    0.3175 C   0  0  0  0  0  0  0  0  0  0  0  0
   -5.6318   -0.1470    1.2723 N   0  0  0  0  0  0  0  0  0  0  0  0
   -5.1502   -0.0808    2.5112 N   0  0  0  0  0  0  0  0  0  0  0  0
   -5.1311   -1.3027    3.0430 C   0  0  0  0  0  0  0  0  0  0  0  0
   -5.6115   -2.1623    2.1201 N   0  0  0  0  0  0  0  0  0  0  0  0
   -5.8987   -1.4260    1.0756 N   0  0  0  0  0  0  0  0  0  0  0  0
   -4.1087   -0.4981   -0.5557 N   0  0  0  0  0  0  0  0  0  0  0  0
   -2.7062   -0.7517   -0.7284 C   0  0  0  0  0  0  0  0  0  0  0  0
   -2.3250   -2.0098   -0.7159 N   0  0  0  0  0  0  0  0  0  0  0  0
   -1.0180   -2.3128   -0.8736 C   0  0  0  0  0  0  0  0  0  0  0  0
   -0.0620   -1.3195   -1.0497 C   0  0  0  0  0  0  0  0  0  0  0  0
    1.2789   -1.5935   -1.2133 C   0  0  0  0  0  0  0  0  0  0  0  0
    2.1508   -0.5215   -1.3822 C   0  0  0  0  0  0  0  0  0  0  0  0
    3.4969   -0.7812   -1.5472 O   0  0  0  0  0  0  0  0  0  0  0  0
    4.4022   -0.2712   -0.6465 C   0  0  0  0  0  0  0  0  0  0  0  0
    5.4097    0.5818   -1.0221 C   0  0  0  0  0  0  0  0  0  0  0  0
    6.2958    1.0748   -0.1108 C   0  0  0  0  0  0  0  0  0  0  0  0
    6.2132    0.7354    1.2208 C   0  0  0  0  0  0  0  0  0  0  0  0
    7.1161    1.2439    2.1199 F   0  0  0  0  0  0  0  0  0  0  0  0
    5.2099   -0.1163    1.6058 C   0  0  0  0  0  0  0  0  0  0  0  0
    4.3123   -0.6150    0.6791 C   0  0  0  0  0  0  0  0  0  0  0  0
    3.3238   -1.4623    1.0976 F   0  0  0  0  0  0  0  0  0  0  0  0
    1.7078    0.7917   -1.3893 C   0  0  0  0  0  0  0  0  0  0  0  0
    2.5072    1.7492   -1.5429 O   0  0  0  0  0  0  0  0  0  0  0  0
    0.3917    1.0170   -1.2265 N   0  0  0  0  0  0  0  0  0  0  0  0
   -0.0687    2.3934   -1.2345 C   0  0  0  0  0  0  0  0  0  0  0  0
   -0.4806   -0.0038   -1.0601 C   0  0  0  0  0  0  0  0  0  0  0  0
   -1.7990    0.2118   -0.8966 N   0  0  0  0  0  0  0  0  0  0  0  0
  1  2  1  0
  2  3  1  0
  2  4  1  0
  4  5  1  0
  5  6  1  0
  6  7  1  0
  7  8  2  0
  7  9  1  0
  9 10  1  6
 10 11  1  0
 11 12  1  0
 11 13  2  0
  9 14  1  0
 14 15  1  0
 15 16  2  0
 15 17  1  0
 17 18  1  0
 18 19  1  0
 18 20  1  0
 22 21  1  1
 22 23  1  0
 23 24  1  0
 24 25  1  0
 25 26  2  0
 26 27  1  0
 27 28  2  0
 22 29  1  0
 29 30  1  0
 30 31  2  0
 31 32  1  0
 32 33  2  0
 33 34  1  0
 34 35  2  0
 35 36  1  0
 36 37  1  0
 37 38  2  0
 38 39  1  0
 39 40  2  0
 40 41  1  0
 40 42  1  0
 42 43  2  0
 43 44  1  0
 35 45  1  0
 45 46  2  0
 45 47  1  0
 47 48  1  0
 47 49  1  0
 49 50  2  0
 28 24  1  0
 50 30  1  0
 49 33  1  0
 43 37  1  0
M  RAD  1  12   2
M  END

