
     RDKit          3D

 51 53  0  0  0  0  0  0  0  0999 V2000
   -6.1710   -0.6741   -0.6249 C   0  0  0  0  0  0  0  0  0  0  0  0
   -5.1569   -0.4222    0.4278 C   0  0  0  0  0  0  0  0  0  0  0  0
   -5.1521    1.1656    0.7420 C   0  0  2  0  0  0  0  0  0  0  0  0
   -4.7452    1.6023   -0.7556 C   0  0  0  0  0  0  0  0  0  0  0  0
   -3.6734    1.1773    1.3549 C   0  0  0  0  0  0  0  0  0  0  0  0
   -2.7359    0.7363    0.3456 N   0  0  0  0  0  0  0  0  0  0  0  0
   -1.3752    0.5895    0.6029 C   0  0  0  0  0  0  0  0  0  0  0  0
   -0.9474    0.8315    1.7078 O   0  0  0  0  0  0  0  0  0  0  0  0
   -0.5521    0.1110   -0.6103 C   0  0  1  0  0  0  0  0  0  0  0  0
    0.5652   -0.5962    0.1643 N   0  0  0  0  0  0  0  0  0  0  0  0
    1.8728   -0.0760    0.1042 C   0  0  0  0  0  0  0  0  0  0  0  0
    2.1497    0.9484   -0.5593 O   0  0  0  0  0  0  0  0  0  0  0  0
    2.8894   -0.8427    0.8920 C   0  0  0  0  0  0  0  0  0  0  0  0
    4.1339   -0.4613    0.9088 C   0  0  0  0  0  0  0  0  0  0  0  0
    5.3933   -0.0877    0.8294 C   0  0  0  0  0  0  0  0  0  0  0  0
    5.7452    1.1156   -0.0157 C   0  0  0  0  0  0  0  0  0  0  0  0
    5.3485    0.9018   -1.4512 C   0  0  0  0  0  0  0  0  0  0  0  0
    6.0485   -0.2663   -1.9784 N   0  0  0  0  0  4  0  0  0  0  0  0
   -1.5172   -1.2035   -1.0357 C   0  0  1  0  0  0  0  0  0  0  0  0
   -0.3072   -2.2130   -1.3640 C   0  0  0  0  0  0  0  0  0  0  0  0
   -1.8131   -1.7496    0.3155 O   0  0  0  0  0  0  0  0  0  0  0  0
    6.2913   -1.6037   -0.9774 C   0  0  0  0  0  0  0  0  0  0  0  0
    4.8740   -1.6196   -1.7778 C   0  0  2  0  0  0  0  0  0  0  0  0
    4.9324   -0.0515   -2.1779 C   0  0  0  0  0  0  0  0  0  0  0  0
    4.9867    0.7434   -0.9767 N   0  0  0  0  0  0  0  0  0  0  0  0
    3.9121    1.1767   -0.3721 N   0  0  0  0  0  0  0  0  0  0  0  0
    4.2931    1.8780    0.7029 C   0  0  0  0  0  0  0  0  0  0  0  0
    5.6208    1.8495    0.7201 N   0  0  0  0  0  0  0  0  0  0  0  0
    6.0274    1.1602   -0.3010 N   0  0  0  0  0  0  0  0  0  0  0  0
    4.0065   -1.4206   -0.5107 N   0  0  0  0  0  0  0  0  0  0  0  0
    2.6126   -1.3718   -0.7544 C   0  0  0  0  0  0  0  0  0  0  0  0
    2.1159   -1.4908   -1.9888 N   0  0  0  0  0  0  0  0  0  0  0  0
    0.7768   -1.4425   -2.2107 C   0  0  0  0  0  0  0  0  0  0  0  0
   -0.0858   -1.2696   -1.1608 C   0  0  0  0  0  0  0  0  0  0  0  0
   -1.4487   -1.2158   -1.3484 C   0  0  0  0  0  0  0  0  0  0  0  0
   -2.2952   -1.0403   -0.2683 C   0  0  0  0  0  0  0  0  0  0  0  0
   -3.6791   -0.9784   -0.3968 O   0  0  0  0  0  0  0  0  0  0  0  0
   -4.4113    0.1382   -0.0032 C   0  0  0  0  0  0  0  0  0  0  0  0
   -5.3917    0.0691    0.9599 C   0  0  0  0  0  0  0  0  0  0  0  0
   -6.1256    1.1643    1.3612 C   0  0  0  0  0  0  0  0  0  0  0  0
   -5.8822    2.3911    0.7848 C   0  0  0  0  0  0  0  0  0  0  0  0
   -6.5868    3.5104    1.1511 F   0  0  0  0  0  0  0  0  0  0  0  0
   -4.8997    2.4600   -0.1803 C   0  0  0  0  0  0  0  0  0  0  0  0
   -4.1633    1.3663   -0.5843 C   0  0  0  0  0  0  0  0  0  0  0  0
   -3.2014    1.4639   -1.5375 F   0  0  0  0  0  0  0  0  0  0  0  0
   -1.7441   -0.9205    0.9986 C   0  0  0  0  0  0  0  0  0  0  0  0
   -2.5106   -0.7622    1.9709 O   0  0  0  0  0  0  0  0  0  0  0  0
   -0.4077   -0.9791    1.1321 N   0  0  0  0  0  0  0  0  0  0  0  0
    0.1839   -0.8547    2.4565 C   0  0  0  0  0  0  0  0  0  0  0  0
    0.4378   -1.1487    0.1021 C   0  0  0  0  0  0  0  0  0  0  0  0
    1.7620   -1.2015    0.2790 N   0  0  0  0  0  0  0  0  0  0  0  0
  1  2  1  0
  2  3  1  0
  3  4  1  6
  3  5  1  0
  5  6  1  0
  6  7  1  0
  7  8  2  0
  7  9  1  0
  9 10  1  1
 10 11  1  0
 11 12  2  0
 11 13  1  0
 13 14  1  0
 14 15  1  0
 15 16  1  0
 16 17  1  0
 17 18  1  0
  9 19  1  0
 19 20  1  6
 19 21  1  0
 23 22  1  1
 23 24  1  0
 24 25  1  0
 25 26  1  0
 26 27  2  0
 27 28  1  0
 28 29  2  0
 23 30  1  0
 30 31  1  0
 31 32  2  0
 32 33  1  0
 33 34  2  0
 34 35  1  0
 35 36  2  0
 36 37  1  0
 37 38  1  0
 38 39  2  0
 39 40  1  0
 40 41  2  0
 41 42  1  0
 41 43  1  0
 43 44  2  0
 44 45  1  0
 36 46  1  0
 46 47  2  0
 46 48  1  0
 48 49  1  0
 48 50  1  0
 50 51  2  0
 29 25  1  0
 51 31  1  0
 50 34  1  0
 44 38  1  0
M  CHG  1  18   1
M  END

