
     RDKit          3D

 54 57  0  0  0  0  0  0  0  0999 V2000
    5.7758   -0.0983   -1.7647 C   0  0  0  0  0  0  0  0  0  0  0  0
    4.2506    0.2463   -1.1587 C   0  0  2  0  0  0  0  0  0  0  0  0
    4.7208   -0.1698    0.3916 C   0  0  0  0  0  0  0  0  0  0  0  0
    5.7965    0.7954    0.5792 N   0  0  0  0  0  0  0  0  0  0  0  0
    7.0564    0.5256    0.2486 N   0  0  0  0  0  0  0  0  0  0  0  0
    7.8014    1.6062    0.5405 C   0  0  0  0  0  0  0  0  0  0  0  0
    6.9549    2.5129    1.0478 N   0  0  0  0  0  0  0  0  0  0  0  0
    5.7275    2.0190    1.0724 N   0  0  0  0  0  0  0  0  0  0  0  0
    3.7263   -1.2184   -1.4655 N   0  0  0  0  0  0  0  0  0  0  0  0
    2.3688   -1.3803   -1.0784 C   0  0  0  0  0  0  0  0  0  0  0  0
    1.8133   -2.5813   -1.2893 N   0  0  0  0  0  0  0  0  0  0  0  0
    0.5300   -2.7934   -0.9426 C   0  0  0  0  0  0  0  0  0  0  0  0
   -0.2520   -1.8179   -0.3718 C   0  0  0  0  0  0  0  0  0  0  0  0
   -1.5592   -1.9856   -0.0029 C   0  0  0  0  0  0  0  0  0  0  0  0
   -2.2123   -0.9024    0.5612 C   0  0  0  0  0  0  0  0  0  0  0  0
   -3.5191   -1.0655    0.9315 O   0  0  0  0  0  0  0  0  0  0  0  0
   -4.5214   -0.2792    0.3748 C   0  0  0  0  0  0  0  0  0  0  0  0
   -4.2754    0.6976   -0.5676 C   0  0  0  0  0  0  0  0  0  0  0  0
   -5.3127    1.4477   -1.0851 C   0  0  0  0  0  0  0  0  0  0  0  0
   -6.6259    1.2713   -0.7015 C   0  0  0  0  0  0  0  0  0  0  0  0
   -7.6341    2.0170   -1.2197 F   0  0  0  0  0  0  0  0  0  0  0  0
   -6.8695    0.2942    0.2408 C   0  0  0  0  0  0  0  0  0  0  0  0
   -5.8346   -0.4583    0.7609 C   0  0  0  0  0  0  0  0  0  0  0  0
   -6.0729   -1.4297    1.6970 F   0  0  0  0  0  0  0  0  0  0  0  0
   -1.6044    0.3095    0.7587 C   0  0  0  0  0  0  0  0  0  0  0  0
   -2.2123    1.2621    1.2656 O   0  0  0  0  0  0  0  0  0  0  0  0
   -0.3062    0.4583    0.3865 N   0  0  0  0  0  0  0  0  0  0  0  0
    0.3480    1.7425    0.5925 C   0  0  0  0  0  0  0  0  0  0  0  0
    0.3363   -0.5883   -0.1622 C   0  0  0  0  0  0  0  0  0  0  0  0
    1.6050   -0.4373   -0.5241 N   0  0  0  0  0  0  0  0  0  0  0  0
   -6.5177    2.1367    1.6765 N   0  0  0  0  0  0  0  0  0  0  0  0
   -5.7129    1.9200    0.5305 C   0  0  0  0  0  0  0  0  0  0  0  0
   -5.9546    2.6125   -0.4902 O   0  0  0  0  0  0  0  0  0  0  0  0
   -4.6366    0.9019    0.5846 C   0  0  0  0  0  0  0  0  0  0  0  0
   -4.1133    0.7125   -0.8324 C   0  0  0  0  0  0  0  0  0  0  0  0
   -3.0760   -0.2665   -0.8305 N   0  0  0  0  0  0  0  0  0  0  0  0
   -1.8800   -0.1352   -0.1268 C   0  0  0  0  0  0  0  0  0  0  0  0
   -1.6501    0.8559    0.5450 O   0  0  0  0  0  0  0  0  0  0  0  0
   -0.8022   -1.2926   -0.2024 C   0  0  2  0  0  0  0  0  0  0  0  0
   -1.4150   -2.0855    1.1558 C   0  0  0  0  0  0  0  0  0  0  0  0
   -0.4614   -3.2883    1.2326 C   0  0  0  0  0  0  0  0  0  0  0  0
   -0.5862   -4.0592   -0.0288 C   0  0  0  0  0  0  0  0  0  0  0  0
   -1.4872   -3.6374   -0.9916 O   0  0  0  0  0  1  0  0  0  0  0  0
    0.1201   -5.0899   -0.2271 O   0  0  0  0  0  0  0  0  0  0  0  0
    0.3233   -0.5823    0.6529 N   0  0  0  0  0  0  0  0  0  0  0  0
    1.4283   -0.1472   -0.1024 C   0  0  0  0  0  0  0  0  0  0  0  0
    1.3939   -0.3701   -1.3443 O   0  0  0  0  0  0  0  0  0  0  0  0
    2.6198    0.5400    0.4017 C   0  0  0  0  0  0  0  0  0  0  0  0
    3.5857    0.8554   -0.7014 C   0  0  0  0  0  0  0  0  0  0  0  0
    4.8012    1.5427   -0.3043 C   0  0  0  0  0  0  0  0  0  0  0  0
    5.8182    1.9286   -1.1560 C   0  0  0  0  0  0  0  0  0  0  0  0
    6.7375    2.5213   -0.3844 N   0  0  0  0  0  0  0  0  0  0  0  0
    6.3342    2.5177    0.8940 C   0  0  0  0  0  0  0  0  0  0  0  0
    5.1311    1.9090    0.9366 N   0  0  0  0  0  0  0  0  0  0  0  0
  2  1  1  6
  2  3  1  0
  3  4  1  0
  4  5  1  0
  5  6  2  0
  6  7  1  0
  7  8  2  0
  2  9  1  0
  9 10  1  0
 10 11  2  0
 11 12  1  0
 12 13  2  0
 13 14  1  0
 14 15  2  0
 15 16  1  0
 16 17  1  0
 17 18  2  0
 18 19  1  0
 19 20  2  0
 20 21  1  0
 20 22  1  0
 22 23  2  0
 23 24  1  0
 15 25  1  0
 25 26  2  0
 25 27  1  0
 27 28  1  0
 27 29  1  0
 29 30  2  0
 31 32  1  0
 32 33  2  0
 32 34  1  0
 34 35  1  0
 35 36  1  0
 36 37  1  0
 37 38  2  0
 37 39  1  0
 39 40  1  1
 40 41  1  0
 41 42  1  0
 42 43  1  0
 42 44  2  0
 39 45  1  0
 45 46  1  0
 46 47  2  0
 46 48  1  0
 48 49  1  0
 49 50  1  0
 50 51  2  0
 51 52  1  0
 52 53  1  0
 53 54  2  0
  8  4  1  0
 30 10  1  0
 54 50  1  0
 29 13  1  0
 23 17  1  0
M  RAD  1  43   2
M  END

