
     RDKit          3D

 51 54  0  0  0  0  0  0  0  0999 V2000
    1.3995    4.2048   -1.1843 C   0  0  0  0  0  0  0  0  0  0  0  0
    0.7382    3.8811    0.1466 C   0  0  0  0  0  0  0  0  0  0  0  0
    1.3620    4.7768    1.2211 C   0  0  0  0  0  0  0  0  0  0  0  0
    0.8905    2.4277    0.5172 C   0  0  0  0  0  0  0  0  0  0  0  0
    0.2865    1.5374   -0.4759 N   0  0  0  0  0  0  0  0  0  0  0  0
    0.4249    0.1285   -0.1482 C   0  0  0  0  0  0  0  0  0  0  0  0
    0.9925   -0.2250    0.8614 O   0  0  0  0  0  0  0  0  0  0  0  0
   -0.2160   -0.8256   -1.2030 C   0  0  2  0  0  0  0  0  0  0  0  0
   -1.3736   -1.4423   -0.2265 C   0  0  0  0  0  0  0  0  0  0  0  0
   -2.1501   -0.2452    0.1493 C   0  0  0  0  0  0  0  0  0  0  0  0
   -3.2332    0.1712   -0.6223 C   0  0  0  0  0  0  0  0  0  0  0  0
   -3.9249    1.2903   -0.2213 C   0  0  0  0  0  0  0  0  0  0  0  0
   -3.6153    2.0250    0.8939 C   0  0  0  0  0  0  0  0  0  0  0  0
   -2.5457    1.6096    1.6534 C   0  0  0  0  0  0  0  0  0  0  0  0
   -1.8337    0.4932    1.2767 C   0  0  0  0  0  0  0  0  0  0  0  0
    0.6902   -1.9625   -1.3045 N   0  0  0  0  0  0  0  0  0  0  0  0
    1.6583   -2.5932   -0.6914 C   0  0  0  0  0  0  0  0  0  0  0  0
    2.1305   -2.2650    0.3998 O   0  0  0  0  0  0  0  0  0  0  0  0
    2.2638   -3.8117   -1.3272 C   0  0  0  0  0  0  0  0  0  0  0  0
    3.3159   -4.4033   -0.4639 C   0  0  0  0  0  0  0  0  0  0  0  0
    2.7397   -4.7719    0.7493 O   0  0  0  0  0  0  0  0  0  0  0  0
   -3.2568    0.1800    2.4764 C   0  0  0  0  0  0  0  0  0  0  0  0
   -4.1381    0.5462    1.1487 C   0  0  2  0  0  0  0  0  0  0  0  0
   -5.5454    0.0743    1.8327 C   0  0  0  0  0  0  0  0  0  0  0  0
   -6.5741    0.2705    0.8967 N   0  0  0  0  0  0  0  0  0  0  0  0
   -7.2930    1.3582    0.7470 N   0  0  0  0  0  0  0  0  0  0  0  0
   -8.1718    1.1439   -0.2553 C   0  0  0  0  0  0  0  0  0  0  0  0
   -7.9793   -0.0874   -0.7141 N   0  0  0  0  0  0  0  0  0  0  0  0
   -7.0100   -0.5892   -0.0004 N   0  0  0  0  0  0  0  0  0  0  0  0
   -3.7948   -0.8057    0.4416 N   0  0  0  0  0  0  0  0  0  0  0  0
   -2.3992   -1.0021    0.2246 C   0  0  0  0  0  0  0  0  0  0  0  0
   -2.0341   -2.1432   -0.3787 N   0  0  0  0  0  0  0  0  0  0  0  0
   -0.7407   -2.4132   -0.6239 C   0  0  0  0  0  0  0  0  0  0  0  0
    0.2487   -1.5315   -0.2659 C   0  0  0  0  0  0  0  0  0  0  0  0
    1.5892   -1.8009   -0.5148 C   0  0  0  0  0  0  0  0  0  0  0  0
    2.5400   -0.8730   -0.1303 C   0  0  0  0  0  0  0  0  0  0  0  0
    3.8921   -1.0355   -0.3267 O   0  0  0  0  0  0  0  0  0  0  0  0
    4.6474   -0.1496   -1.0863 C   0  0  0  0  0  0  0  0  0  0  0  0
    4.0892    0.9558   -1.6960 C   0  0  0  0  0  0  0  0  0  0  0  0
    4.8685    1.8151   -2.4433 C   0  0  0  0  0  0  0  0  0  0  0  0
    6.2159    1.6337   -2.6260 C   0  0  0  0  0  0  0  0  0  0  0  0
    6.9524    2.5042   -3.3711 F   0  0  0  0  0  0  0  0  0  0  0  0
    6.7598    0.5268   -2.0120 C   0  0  0  0  0  0  0  0  0  0  0  0
    6.0002   -0.3462   -1.2601 C   0  0  0  0  0  0  0  0  0  0  0  0
    6.5432   -1.4467   -0.6502 F   0  0  0  0  0  0  0  0  0  0  0  0
    2.1033    0.2766    0.4833 C   0  0  0  0  0  0  0  0  0  0  0  0
    2.9547    1.1299    0.8389 O   0  0  0  0  0  0  0  0  0  0  0  0
    0.7968    0.5287    0.7207 N   0  0  0  0  0  0  0  0  0  0  0  0
    0.3618    1.7536    1.3719 C   0  0  0  0  0  0  0  0  0  0  0  0
   -0.1636   -0.3621    0.3556 C   0  0  0  0  0  0  0  0  0  0  0  0
   -1.4626   -0.1114    0.5916 N   0  0  0  0  0  0  0  0  0  0  0  0
  1  2  1  0
  2  3  1  0
  2  4  1  0
  4  5  1  0
  5  6  1  0
  6  7  2  0
  6  8  1  0
  8  9  1  1
  9 10  1  0
 10 11  2  0
 11 12  1  0
 12 13  2  0
 13 14  1  0
 14 15  2  0
  8 16  1  0
 16 17  1  0
 17 18  2  0
 17 19  1  0
 19 20  1  0
 20 21  1  0
 23 22  1  1
 23 24  1  0
 24 25  1  0
 25 26  1  0
 26 27  2  0
 27 28  1  0
 28 29  2  0
 23 30  1  0
 30 31  1  0
 31 32  2  0
 32 33  1  0
 33 34  2  0
 34 35  1  0
 35 36  2  0
 36 37  1  0
 37 38  1  0
 38 39  2  0
 39 40  1  0
 40 41  2  0
 41 42  1  0
 41 43  1  0
 43 44  2  0
 44 45  1  0
 36 46  1  0
 46 47  2  0
 46 48  1  0
 48 49  1  0
 48 50  1  0
 50 51  2  0
 15 10  1  0
 29 25  1  0
 51 31  1  0
 50 34  1  0
 44 38  1  0
M  END

