
     RDKit          3D

 47 49  0  0  0  0  0  0  0  0999 V2000
   -5.4300   -0.9309    0.4734 C   0  0  0  0  0  0  0  0  0  0  0  0
   -4.9732    0.2374   -0.2969 C   0  0  0  0  0  0  0  0  0  0  0  0
   -4.6994    1.4046    0.5484 C   0  0  0  0  0  0  0  0  0  0  0  0
   -4.1583    0.0645   -1.4670 C   0  0  0  0  0  0  0  0  0  0  0  0
   -2.8795   -0.5995   -1.3331 C   0  0  0  0  0  0  0  0  0  0  0  0
   -1.8442   -0.0736   -0.4848 C   0  0  0  0  0  0  0  0  0  0  0  0
   -2.0428    0.9604    0.2109 O   0  0  0  0  0  0  0  0  0  0  0  0
   -0.5312   -0.6257   -0.3342 N   0  0  0  0  0  0  0  0  0  0  0  0
    0.4090    0.1698    0.6628 C   0  0  1  0  0  0  0  0  0  0  0  0
    0.8442   -1.2178    1.5088 C   0  0  0  0  0  0  0  0  0  0  0  0
    1.6814    0.1585   -0.2919 C   0  0  0  0  0  0  0  0  0  0  0  0
    1.8030   -0.4872   -1.2806 O   0  0  0  0  0  0  0  0  0  0  0  0
    2.7206    1.0247    0.1424 N   0  0  0  0  0  0  0  0  0  0  0  0
    3.9794    1.2212   -0.5175 C   0  0  0  0  0  0  0  0  0  0  0  0
    4.8914    0.0930   -0.6413 C   0  0  0  0  0  0  0  0  0  0  0  0
    4.4751   -1.1329   -1.3480 C   0  0  0  0  0  0  0  0  0  0  0  0
    5.7546   -0.2664    0.5243 C   0  0  0  0  0  0  0  0  0  0  0  0
   -4.2090   -2.7723    0.4353 C   0  0  0  0  0  0  0  0  0  0  0  0
   -4.6850   -1.2726    0.9665 C   0  0  2  0  0  0  0  0  0  0  0  0
   -6.0332   -1.2638   -0.0366 C   0  0  0  0  0  0  0  0  0  0  0  0
   -6.5541    0.0514    0.3520 N   0  0  0  0  0  0  0  0  0  0  0  0
   -7.3867    0.3849    1.2884 N   0  0  0  0  0  0  0  0  0  0  0  0
   -7.5527    1.7236    1.2484 C   0  0  0  0  0  0  0  0  0  0  0  0
   -6.7929    2.2157    0.2519 N   0  0  0  0  0  0  0  0  0  0  0  0
   -6.1949    1.1507   -0.2736 N   0  0  0  0  0  0  0  0  0  0  0  0
   -3.8083   -0.4834   -0.0817 N   0  0  0  0  0  0  0  0  0  0  0  0
   -2.4252   -0.6872   -0.0434 C   0  0  0  0  0  0  0  0  0  0  0  0
   -1.9278   -1.5358    0.8756 N   0  0  0  0  0  0  0  0  0  0  0  0
   -0.6436   -1.8305    1.0342 C   0  0  0  0  0  0  0  0  0  0  0  0
    0.2697   -1.2363    0.2086 C   0  0  0  0  0  0  0  0  0  0  0  0
    1.6140   -1.4940    0.3153 C   0  0  0  0  0  0  0  0  0  0  0  0
    2.5197   -0.8881   -0.5229 C   0  0  0  0  0  0  0  0  0  0  0  0
    3.8696   -1.1803   -0.3767 O   0  0  0  0  0  0  0  0  0  0  0  0
    4.8176   -0.2070   -0.0829 C   0  0  0  0  0  0  0  0  0  0  0  0
    5.8785    0.0579   -0.9255 C   0  0  0  0  0  0  0  0  0  0  0  0
    6.8059    1.0318   -0.6070 C   0  0  0  0  0  0  0  0  0  0  0  0
    6.7249    1.7800    0.5494 C   0  0  0  0  0  0  0  0  0  0  0  0
    7.6484    2.7343    0.8445 F   0  0  0  0  0  0  0  0  0  0  0  0
    5.6629    1.5114    1.3878 C   0  0  0  0  0  0  0  0  0  0  0  0
    4.7370    0.5417    1.0738 C   0  0  0  0  0  0  0  0  0  0  0  0
    3.6773    0.2608    1.8921 F   0  0  0  0  0  0  0  0  0  0  0  0
    2.0235   -0.0205   -1.4644 C   0  0  0  0  0  0  0  0  0  0  0  0
    2.8396    0.5377   -2.2340 O   0  0  0  0  0  0  0  0  0  0  0  0
    0.6927    0.2144   -1.5464 N   0  0  0  0  0  0  0  0  0  0  0  0
    0.1773    1.1434   -2.5567 C   0  0  0  0  0  0  0  0  0  0  0  0
   -0.2097   -0.3577   -0.7481 C   0  0  0  0  0  0  0  0  0  0  0  0
   -1.5357   -0.1100   -0.8458 N   0  0  0  0  0  0  0  0  0  0  0  0
  1  2  1  0
  2  3  1  0
  2  4  1  0
  4  5  1  0
  5  6  1  0
  6  7  2  0
  6  8  1  0
  8  9  1  0
  9 10  1  1
  9 11  1  0
 11 12  2  0
 11 13  1  0
 13 14  1  0
 14 15  1  0
 15 16  1  0
 15 17  1  0
 19 18  1  6
 19 20  1  0
 20 21  1  0
 21 22  1  0
 22 23  2  0
 23 24  1  0
 24 25  2  0
 19 26  1  0
 26 27  1  0
 27 28  2  0
 28 29  1  0
 29 30  2  0
 30 31  1  0
 31 32  2  0
 32 33  1  0
 33 34  1  0
 34 35  2  0
 35 36  1  0
 36 37  2  0
 37 38  1  0
 37 39  1  0
 39 40  2  0
 40 41  1  0
 32 42  1  0
 42 43  2  0
 42 44  1  0
 44 45  1  0
 44 46  1  0
 46 47  2  0
 25 21  1  0
 47 27  1  0
 46 30  1  0
 40 34  1  0
M  END

