
     RDKit          3D

 55 58  0  0  0  0  0  0  0  0999 V2000
    3.7632   -2.1516   -1.3503 C   0  0  0  0  0  0  0  0  0  0  0  0
    4.4625   -0.6252   -1.2445 C   0  0  2  0  0  0  0  0  0  0  0  0
    5.8996   -1.2929   -0.6891 C   0  0  0  0  0  0  0  0  0  0  0  0
    6.7666   -0.1749   -0.4891 N   0  0  0  0  0  0  0  0  0  0  0  0
    6.8404    0.4823    0.6644 N   0  0  0  0  0  0  0  0  0  0  0  0
    7.7214    1.4791    0.5860 C   0  0  0  0  0  0  0  0  0  0  0  0
    8.2144    1.4382   -0.6683 N   0  0  0  0  0  0  0  0  0  0  0  0
    7.6170    0.4221   -1.3030 N   0  0  0  0  0  0  0  0  0  0  0  0
    3.9234   -0.3723    0.2235 N   0  0  0  0  0  0  0  0  0  0  0  0
    2.5319   -0.3930    0.3959 C   0  0  0  0  0  0  0  0  0  0  0  0
    2.0852   -0.1779    1.6418 N   0  0  0  0  0  0  0  0  0  0  0  0
    0.8127   -0.1565    2.0160 C   0  0  0  0  0  0  0  0  0  0  0  0
   -0.1549   -0.3746    1.0423 C   0  0  0  0  0  0  0  0  0  0  0  0
   -1.4490   -0.3594    1.3852 C   0  0  0  0  0  0  0  0  0  0  0  0
   -2.4401   -0.5852    0.3734 C   0  0  0  0  0  0  0  0  0  0  0  0
   -3.6769   -0.5440    0.8541 O   0  0  0  0  0  0  0  0  0  0  0  0
   -4.7863    0.1902    0.7265 C   0  0  0  0  0  0  0  0  0  0  0  0
   -5.1766    0.9520    1.8912 C   0  0  0  0  0  0  0  0  0  0  0  0
   -6.2895    1.7147    1.8356 C   0  0  0  0  0  0  0  0  0  0  0  0
   -7.0811    1.8034    0.7089 C   0  0  0  0  0  0  0  0  0  0  0  0
   -8.1965    2.5864    0.6951 F   0  0  0  0  0  0  0  0  0  0  0  0
   -6.7492    1.1046   -0.4006 C   0  0  0  0  0  0  0  0  0  0  0  0
   -5.5951    0.3072   -0.3560 C   0  0  0  0  0  0  0  0  0  0  0  0
   -5.3661   -0.3933   -1.4925 F   0  0  0  0  0  0  0  0  0  0  0  0
   -1.9512   -0.8021   -0.8843 C   0  0  0  0  0  0  0  0  0  0  0  0
   -2.7661   -1.0166   -1.8470 O   0  0  0  0  0  0  0  0  0  0  0  0
   -0.6402   -0.8055   -1.1702 N   0  0  0  0  0  0  0  0  0  0  0  0
   -0.2470   -1.0502   -2.5624 C   0  0  0  0  0  0  0  0  0  0  0  0
    0.3042   -0.5981   -0.2516 C   0  0  0  0  0  0  0  0  0  0  0  0
    1.6234   -0.6070   -0.5680 N   0  0  0  0  0  0  0  0  0  0  0  0
   -2.6328    4.9549    0.9260 N   0  0  0  0  0  0  0  0  0  0  0  0
   -3.1000    3.6100    0.8418 C   0  0  0  0  0  0  0  0  0  0  0  0
   -4.0181    3.2061    1.6068 O   0  0  0  0  0  0  0  0  0  0  0  0
   -2.5132    2.6771   -0.1433 C   0  0  0  0  0  0  0  0  0  0  0  0
   -3.0691    1.2755    0.1447 C   0  0  0  0  0  0  0  0  0  0  0  0
   -2.4667    0.3517   -0.8419 N   0  0  0  0  0  0  0  0  0  0  0  0
   -1.0358    0.3326   -0.7987 C   0  0  0  0  0  0  0  0  0  0  0  0
   -0.3716    1.0244   -0.0101 O   0  0  0  0  0  0  0  0  0  0  0  0
   -0.3066   -0.6356   -1.8410 C   0  0  2  0  0  0  0  0  0  0  0  0
   -0.0592   -1.8597   -0.7802 C   0  0  0  0  0  0  0  0  0  0  0  0
   -1.3813   -2.2878   -0.3000 C   0  0  0  0  0  0  0  0  0  0  0  0
   -1.9499   -1.7510    0.8451 C   0  0  0  0  0  0  0  0  0  0  0  0
   -3.1628   -2.1151    1.3313 C   0  0  0  0  0  0  0  0  0  0  0  0
   -3.9095   -3.0693    0.6808 C   0  0  0  0  0  0  0  0  0  0  0  0
   -3.4022   -3.6364   -0.4559 C   0  0  0  0  0  0  0  0  0  0  0  0
   -2.1690   -3.2351   -0.9086 C   0  0  0  0  0  0  0  0  0  0  0  0
    1.1237   -0.0031   -1.6893 N   0  0  0  0  0  0  0  0  0  0  0  0
    1.8641   -0.1393   -0.5438 C   0  0  0  0  0  0  0  0  0  0  0  0
    1.4582   -0.7863    0.4667 O   0  0  0  0  0  0  0  0  0  0  0  0
    3.2018    0.4996   -0.4832 C   0  0  0  0  0  0  0  0  0  0  0  0
    3.8818    0.1532    0.8094 C   0  0  0  0  0  0  0  0  0  0  0  0
    5.2417    0.8421    0.8576 C   0  0  0  0  0  0  0  0  0  0  0  0
    6.0092    0.3838   -0.3067 C   0  0  0  0  0  0  0  0  0  0  0  0
    6.6751   -0.8382   -0.2302 O   0  0  0  0  0  1  0  0  0  0  0  0
    6.0925    1.0457   -1.3687 O   0  0  0  0  0  0  0  0  0  0  0  0
  2  1  1  1
  2  3  1  0
  3  4  1  0
  4  5  1  0
  5  6  2  0
  6  7  1  0
  7  8  2  0
  2  9  1  0
  9 10  1  0
 10 11  2  0
 11 12  1  0
 12 13  2  0
 13 14  1  0
 14 15  2  0
 15 16  1  0
 16 17  1  0
 17 18  2  0
 18 19  1  0
 19 20  2  0
 20 21  1  0
 20 22  1  0
 22 23  2  0
 23 24  1  0
 15 25  1  0
 25 26  2  0
 25 27  1  0
 27 28  1  0
 27 29  1  0
 29 30  2  0
 31 32  1  0
 32 33  2  0
 32 34  1  0
 34 35  1  0
 35 36  1  0
 36 37  1  0
 37 38  2  0
 37 39  1  0
 39 40  1  1
 40 41  1  0
 41 42  2  0
 42 43  1  0
 43 44  2  0
 44 45  1  0
 45 46  2  0
 39 47  1  0
 47 48  1  0
 48 49  2  0
 48 50  1  0
 50 51  1  0
 51 52  1  0
 52 53  1  0
 53 54  1  0
 53 55  2  0
  8  4  1  0
 30 10  1  0
 46 41  1  0
 29 13  1  0
 23 17  1  0
M  RAD  1  54   2
M  END

