
     RDKit          3D

 57 61  0  0  0  0  0  0  0  0999 V2000
   -4.5122    2.0740    2.5416 C   0  0  0  0  0  0  0  0  0  0  0  0
   -3.1544    2.5484    3.4160 C   0  0  1  0  0  0  0  0  0  0  0  0
   -3.9510    2.6221    4.7186 O   0  0  0  0  0  0  0  0  0  0  0  0
   -2.6976    0.9843    3.6803 C   0  0  0  0  0  0  0  0  0  0  0  0
   -2.4932    0.4084    2.3442 C   0  0  0  0  0  0  0  0  0  0  0  0
   -2.6686    1.1611    1.3464 O   0  0  0  0  0  0  0  0  0  0  0  0
   -2.1315   -0.8675    2.1021 N   0  0  0  0  0  0  0  0  0  0  0  0
   -1.8998   -1.5415    0.7359 C   0  0  1  0  0  0  0  0  0  0  0  0
   -2.4945   -0.2971   -0.1454 C   0  0  0  0  0  0  0  0  0  0  0  0
   -2.3757   -0.7685   -1.5317 C   0  0  0  0  0  0  0  0  0  0  0  0
   -3.3973   -1.5202   -2.1312 C   0  0  0  0  0  0  0  0  0  0  0  0
   -3.3451   -1.9747   -3.4274 C   0  0  0  0  0  0  0  0  0  0  0  0
   -2.2247   -1.6772   -4.1902 C   0  0  0  0  0  0  0  0  0  0  0  0
   -1.2236   -0.9434   -3.6098 C   0  0  0  0  0  0  0  0  0  0  0  0
   -1.2969   -0.5045   -2.3246 C   0  0  0  0  0  0  0  0  0  0  0  0
   -0.3504   -1.3582    0.5065 C   0  0  0  0  0  0  0  0  0  0  0  0
    0.1864   -0.7194    1.4266 O   0  0  0  0  0  0  0  0  0  0  0  0
    0.3667   -1.8245   -0.5518 N   0  0  0  0  0  0  0  0  0  0  0  0
    1.8151   -1.5753   -0.6154 C   0  0  0  0  0  0  0  0  0  0  0  0
    1.9991   -0.0822   -0.6126 C   0  0  0  0  0  0  0  0  0  0  0  0
    3.4154    0.3349   -0.6570 C   0  0  0  0  0  0  0  0  0  0  0  0
    4.0264    0.4926    0.5683 C   0  0  0  0  0  0  0  0  0  0  0  0
    5.3452    0.8809    0.6735 C   0  0  0  0  0  0  0  0  0  0  0  0
    6.0639    1.1142   -0.4600 C   0  0  0  0  0  0  0  0  0  0  0  0
    7.3990    1.5056   -0.3180 O   0  0  0  0  0  0  0  0  0  0  0  0
    5.4650    0.9591   -1.6773 C   0  0  0  0  0  0  0  0  0  0  0  0
    4.1343    0.5683   -1.8076 C   0  0  0  0  0  0  0  0  0  0  0  0
   -3.8824   -0.0599    2.9166 C   0  0  0  0  0  0  0  0  0  0  0  0
   -4.6552    0.7624    1.6973 C   0  0  2  0  0  0  0  0  0  0  0  0
   -4.2301   -0.3603    0.5503 C   0  0  0  0  0  0  0  0  0  0  0  0
   -4.8290    0.1937   -0.6203 N   0  0  0  0  0  0  0  0  0  0  0  0
   -4.2181    1.0491   -1.4455 N   0  0  0  0  0  0  0  0  0  0  0  0
   -5.0913    1.3369   -2.4132 C   0  0  0  0  0  0  0  0  0  0  0  0
   -6.2072    0.6521   -2.1534 N   0  0  0  0  0  0  0  0  0  0  0  0
   -6.0548   -0.0558   -1.0496 N   0  0  0  0  0  0  0  0  0  0  0  0
   -3.4462    1.7482    1.4828 N   0  0  0  0  0  0  0  0  0  0  0  0
   -2.1983    1.2313    1.1392 C   0  0  0  0  0  0  0  0  0  0  0  0
   -1.2055    2.1061    0.9682 N   0  0  0  0  0  0  0  0  0  0  0  0
    0.0545    1.7714    0.6363 C   0  0  0  0  0  0  0  0  0  0  0  0
    0.3868    0.4447    0.4503 C   0  0  0  0  0  0  0  0  0  0  0  0
    1.6462    0.0121    0.1107 C   0  0  0  0  0  0  0  0  0  0  0  0
    1.9351   -1.3249   -0.0656 C   0  0  0  0  0  0  0  0  0  0  0  0
    3.1943   -1.7673   -0.4059 O   0  0  0  0  0  0  0  0  0  0  0  0
    4.1928   -0.8387   -0.5741 C   0  0  0  0  0  0  0  0  0  0  0  0
    5.3305   -0.8582    0.1926 C   0  0  0  0  0  0  0  0  0  0  0  0
    6.3077    0.1099   -0.0248 C   0  0  0  0  0  0  0  0  0  0  0  0
    6.1485    1.0757   -0.9887 C   0  0  0  0  0  0  0  0  0  0  0  0
    7.1307    1.9845   -1.1500 F   0  0  0  0  0  0  0  0  0  0  0  0
    5.0224    1.1005   -1.7525 C   0  0  0  0  0  0  0  0  0  0  0  0
    4.0413    0.1302   -1.5356 C   0  0  0  0  0  0  0  0  0  0  0  0
    2.9300    0.1920   -2.3227 F   0  0  0  0  0  0  0  0  0  0  0  0
    0.8875   -2.2019    0.1185 C   0  0  0  0  0  0  0  0  0  0  0  0
    1.1137   -3.4395   -0.0347 O   0  0  0  0  0  0  0  0  0  0  0  0
   -0.3357   -1.7604    0.4500 N   0  0  0  0  0  0  0  0  0  0  0  0
   -1.4496   -2.7042    0.6449 C   0  0  0  0  0  0  0  0  0  0  0  0
   -0.6286   -0.4723    0.6234 C   0  0  0  0  0  0  0  0  0  0  0  0
   -1.8903   -0.0575    0.9621 N   0  0  0  0  0  0  0  0  0  0  0  0
  2  1  1  6
  2  3  1  0
  2  4  1  0
  4  5  1  0
  5  6  2  0
  5  7  1  0
  7  8  1  0
  8  9  1  6
  9 10  1  0
 10 11  2  0
 11 12  1  0
 12 13  2  0
 13 14  1  0
 14 15  2  0
  8 16  1  0
 16 17  2  0
 16 18  1  0
 18 19  1  0
 19 20  1  0
 20 21  1  0
 21 22  2  0
 22 23  1  0
 23 24  2  0
 24 25  1  0
 24 26  1  0
 26 27  2  0
 29 28  1  1
 29 30  1  0
 30 31  1  0
 31 32  1  0
 32 33  2  0
 33 34  1  0
 34 35  2  0
 29 36  1  0
 36 37  1  0
 37 38  2  0
 38 39  1  0
 39 40  2  0
 40 41  1  0
 41 42  2  0
 42 43  1  0
 43 44  1  0
 44 45  2  0
 45 46  1  0
 46 47  2  0
 47 48  1  0
 47 49  1  0
 49 50  2  0
 50 51  1  0
 42 52  1  0
 52 53  2  0
 52 54  1  0
 54 55  1  0
 54 56  1  0
 56 57  2  0
 15 10  1  0
 27 21  1  0
 35 31  1  0
 57 37  1  0
 56 40  1  0
 50 44  1  0
M  END

