
     RDKit          3D

 52 54  0  0  0  0  0  0  0  0999 V2000
   -5.2048    0.7165   -0.0315 C   0  0  0  0  0  0  0  0  0  0  0  0
   -5.0601    2.1158   -0.3916 C   0  0  0  0  0  0  0  0  0  0  0  0
   -6.2721    2.8541   -0.8592 C   0  0  0  0  0  0  0  0  0  0  0  0
   -3.8600    2.8901   -0.1269 C   0  0  0  0  0  0  0  0  0  0  0  0
   -2.6442    2.3560   -0.7742 C   0  0  0  0  0  0  0  0  0  0  0  0
   -2.1837    1.0201   -0.3330 C   0  0  0  0  0  0  0  0  0  0  0  0
   -2.6954    0.4724    0.6858 O   0  0  0  0  0  0  0  0  0  0  0  0
   -1.1601    0.2968   -1.0189 N   0  0  0  0  0  0  0  0  0  0  0  0
   -0.8821   -1.0899   -0.3100 C   0  0  1  0  0  0  0  0  0  0  0  0
   -0.0598   -1.7207   -1.6047 C   0  0  0  0  0  0  0  0  0  0  0  0
    0.3011   -3.0974   -1.1408 C   0  0  0  0  0  0  0  0  0  0  0  0
    1.0681   -3.9100   -2.0032 N   0  0  0  0  0  0  0  0  0  0  0  0
   -0.0420   -3.5611   -0.0282 O   0  0  0  0  0  0  0  0  0  0  0  0
    0.4277   -0.6328    0.5033 C   0  0  0  0  0  0  0  0  0  0  0  0
    0.8135    0.5280    0.3955 O   0  0  0  0  0  0  0  0  0  0  0  0
    1.0759   -1.5798    1.3030 N   0  0  0  0  0  0  0  0  0  0  0  0
    2.2649   -1.1132    2.0285 C   0  0  0  0  0  0  0  0  0  0  0  0
    3.3134   -0.5952    1.1017 C   0  0  0  0  0  0  0  0  0  0  0  0
    4.4945   -0.1541    1.9354 C   0  0  0  0  0  0  0  0  0  0  0  0
    5.5706    0.3929    1.0104 C   0  0  0  0  0  0  0  0  0  0  0  0
    4.9172    1.5872    0.2911 C   0  0  0  0  0  0  0  0  0  0  0  0
    5.8174    2.2243   -0.6325 N   0  0  0  0  0  4  0  0  0  0  0  0
    3.6014   -1.6678   -1.4874 C   0  0  0  0  0  0  0  0  0  0  0  0
    4.4039   -0.3559   -0.8643 C   0  0  2  0  0  0  0  0  0  0  0  0
    5.7153   -1.2693   -0.4198 C   0  0  0  0  0  0  0  0  0  0  0  0
    6.6283   -0.3184    0.1873 N   0  0  0  0  0  0  0  0  0  0  0  0
    7.5727    0.3851   -0.4041 N   0  0  0  0  0  0  0  0  0  0  0  0
    8.1942    1.1518    0.5291 C   0  0  0  0  0  0  0  0  0  0  0  0
    7.5810    0.8778    1.7088 N   0  0  0  0  0  0  0  0  0  0  0  0
    6.6350   -0.0169    1.4741 N   0  0  0  0  0  0  0  0  0  0  0  0
    3.7074   -0.4981    0.5508 N   0  0  0  0  0  0  0  0  0  0  0  0
    2.2922   -0.3719    0.4342 C   0  0  0  0  0  0  0  0  0  0  0  0
    1.5225   -0.4681    1.5587 N   0  0  0  0  0  0  0  0  0  0  0  0
    0.1894   -0.3616    1.5378 C   0  0  0  0  0  0  0  0  0  0  0  0
   -0.4710   -0.1458    0.3522 C   0  0  0  0  0  0  0  0  0  0  0  0
   -1.8426   -0.0248    0.2489 C   0  0  0  0  0  0  0  0  0  0  0  0
   -2.4429    0.1914   -0.9735 C   0  0  0  0  0  0  0  0  0  0  0  0
   -3.8006    0.3126   -1.0868 O   0  0  0  0  0  0  0  0  0  0  0  0
   -4.6819    0.2331   -0.0202 C   0  0  0  0  0  0  0  0  0  0  0  0
   -4.2863    0.0215    1.2835 C   0  0  0  0  0  0  0  0  0  0  0  0
   -5.2224   -0.0476    2.3063 C   0  0  0  0  0  0  0  0  0  0  0  0
   -6.5748    0.0899    2.0721 C   0  0  0  0  0  0  0  0  0  0  0  0
   -7.4932    0.0227    3.0709 F   0  0  0  0  0  0  0  0  0  0  0  0
   -6.9683    0.3016    0.7668 C   0  0  0  0  0  0  0  0  0  0  0  0
   -6.0328    0.3712   -0.2588 C   0  0  0  0  0  0  0  0  0  0  0  0
   -6.4476    0.5818   -1.5449 F   0  0  0  0  0  0  0  0  0  0  0  0
   -1.6555    0.2867   -2.1011 C   0  0  0  0  0  0  0  0  0  0  0  0
   -2.1786    0.4871   -3.2523 O   0  0  0  0  0  0  0  0  0  0  0  0
   -0.3223    0.1653   -1.9727 N   0  0  0  0  0  0  0  0  0  0  0  0
    0.4625    0.2759   -3.2096 C   0  0  0  0  0  0  0  0  0  0  0  0
    0.2894   -0.0458   -0.7938 C   0  0  0  0  0  0  0  0  0  0  0  0
    1.6256   -0.1632   -0.6963 N   0  0  0  0  0  0  0  0  0  0  0  0
  1  2  1  0
  2  3  1  0
  2  4  1  0
  4  5  1  0
  5  6  1  0
  6  7  2  0
  6  8  1  0
  8  9  1  0
  9 10  1  6
 10 11  1  0
 11 12  1  0
 11 13  2  0
  9 14  1  0
 14 15  2  0
 14 16  1  0
 16 17  1  0
 17 18  1  0
 18 19  1  0
 19 20  1  0
 20 21  1  0
 21 22  1  0
 24 23  1  6
 24 25  1  0
 25 26  1  0
 26 27  1  0
 27 28  2  0
 28 29  1  0
 29 30  2  0
 24 31  1  0
 31 32  1  0
 32 33  2  0
 33 34  1  0
 34 35  2  0
 35 36  1  0
 36 37  2  0
 37 38  1  0
 38 39  1  0
 39 40  2  0
 40 41  1  0
 41 42  2  0
 42 43  1  0
 42 44  1  0
 44 45  2  0
 45 46  1  0
 37 47  1  0
 47 48  2  0
 47 49  1  0
 49 50  1  0
 49 51  1  0
 51 52  2  0
 30 26  1  0
 52 32  1  0
 51 35  1  0
 45 39  1  0
M  CHG  1  22   1
M  END

