
     RDKit          3D

 30 33  0  0  0  0  0  0  0  0999 V2000
    4.9829    0.1217   -2.3580 C   0  0  0  0  0  0  0  0  0  0  0  0
    5.4144    0.4982   -0.8338 C   0  0  2  0  0  0  0  0  0  0  0  0
    4.7210   -0.8162   -0.1871 C   0  0  0  0  0  0  0  0  0  0  0  0
    4.9829   -0.6980    1.2194 N   0  0  0  0  0  0  0  0  0  0  0  0
    6.0543   -1.1922    1.8255 N   0  0  0  0  0  0  0  0  0  0  0  0
    5.9816   -0.9018    3.1362 C   0  0  0  0  0  0  0  0  0  0  0  0
    4.8164   -0.2126    3.2764 N   0  0  0  0  0  0  0  0  0  0  0  0
    4.2321   -0.1034    2.1021 N   0  0  0  0  0  0  0  0  0  0  0  0
    4.2344    1.4481   -0.5580 N   0  0  0  0  0  0  0  0  0  0  0  0
    2.9095    1.0110   -0.7184 C   0  0  0  0  0  0  0  0  0  0  0  0
    2.7357   -0.2578   -1.1235 N   0  0  0  0  0  0  0  0  0  0  0  0
    1.5640   -0.8428   -1.3282 C   0  0  0  0  0  0  0  0  0  0  0  0
    0.4257   -0.0957   -1.1102 C   0  0  0  0  0  0  0  0  0  0  0  0
   -0.8082   -0.6671   -1.3116 C   0  0  0  0  0  0  0  0  0  0  0  0
   -1.9371    0.1035   -1.0860 C   0  0  0  0  0  0  0  0  0  0  0  0
   -3.1573   -0.4823   -1.2918 O   0  0  0  0  0  0  0  0  0  0  0  0
   -4.1464   -0.6499   -0.3628 C   0  0  0  0  0  0  0  0  0  0  0  0
   -4.0829   -0.2566    0.9419 C   0  0  0  0  0  0  0  0  0  0  0  0
   -5.1473   -0.4791    1.7913 C   0  0  0  0  0  0  0  0  0  0  0  0
   -6.3078   -1.0953    1.3850 C   0  0  0  0  0  0  0  0  0  0  0  0
   -7.3430   -1.2999    2.2534 F   0  0  0  0  0  0  0  0  0  0  0  0
   -6.3766   -1.4948    0.0664 C   0  0  0  0  0  0  0  0  0  0  0  0
   -5.3184   -1.2772   -0.7912 C   0  0  0  0  0  0  0  0  0  0  0  0
   -5.4332   -1.6875   -2.0772 F   0  0  0  0  0  0  0  0  0  0  0  0
   -1.7466    1.3988   -0.6723 C   0  0  0  0  0  0  0  0  0  0  0  0
   -2.7479    2.1214   -0.4597 O   0  0  0  0  0  0  0  0  0  0  0  0
   -0.5214    1.9259   -0.4850 N   0  0  0  0  0  0  0  0  0  0  0  0
   -0.3967    3.3194   -0.0412 C   0  0  0  0  0  0  0  0  0  0  0  0
    0.5905    1.2003   -0.6966 C   0  0  0  0  0  0  0  0  0  0  0  0
    1.8256    1.7405   -0.5050 N   0  0  0  0  0  0  0  0  0  0  0  0
  2  1  1  6
  2  3  1  0
  3  4  1  0
  4  5  1  0
  5  6  2  0
  6  7  1  0
  7  8  2  0
  2  9  1  0
  9 10  1  0
 10 11  2  0
 11 12  1  0
 12 13  2  0
 13 14  1  0
 14 15  2  0
 15 16  1  0
 16 17  1  0
 17 18  2  0
 18 19  1  0
 19 20  2  0
 20 21  1  0
 20 22  1  0
 22 23  2  0
 23 24  1  0
 15 25  1  0
 25 26  2  0
 25 27  1  0
 27 28  1  0
 27 29  1  0
 29 30  2  0
  8  4  1  0
 30 10  1  0
 29 13  1  0
 23 17  1  0
M  END

